##TITLE=f324b9c82ac5 - reference
##JCAMPDX= 6.0         $$ Bruker NMR JCAMP-DX V2.0
##DATA TYPE= NMR SPECTRUM
##DATA CLASS= NTUPLES
##ORIGIN= BRUKER
##OWNER= apprentis.isic@epfl.ch
##LONG DATE= 2023/07/05 19:19:11+0000
$$ TopSpin 4.1.4
$$ 2023-11-01 10:04:01.066 +0100  nmrsu@nmrf492r
$$ Compression mode = diff/dup
##.OBSERVE FREQUENCY= 400.13240078
##.OBSERVE NUCLEUS= ^1H
##.ACQUISITION MODE= SIMULTANEOUS (DQD)
##.ACQUISITION SCHEME= undefined
##.AVERAGES= 8
##.DIGITISER RES= 32
##SPECTROMETER/DATA SYSTEM= AV4 400 MHZ
##.PULSE SEQUENCE= zg30
##.SOLVENT NAME= CDCl3
##.SHIFT REFERENCE= INTERNAL, CDCl3, 1, 13.35055
##AUDIT TRAIL= $$ (NUMBER, WHEN, WHO, WHERE, PROCESS, VERSION, WHAT)
$$ ##TITLE= Audit trail, TopSpin 4.1.4
$$ ##JCAMPDX= 5.01
$$ ##ORIGIN= Bruker BioSpin GmbH
$$ ##OWNER= nmrsu
$$ $$ /opt/data/apprentis.isic@epfl.ch/nmr/f324b9c82ac5_reference_142-82-5/1/pdata/1/auditp.txt
$$ ##AUDIT TRAIL=  $$ (NUMBER, WHEN, WHO, WHERE, PROCESS, VERSION, WHAT)
(   1,<2023-07-05 19:18:30.486 +0000>,<nmrsu>,<nmrf492r>,<go4>,<TopSpin 4.1.4>,
      <acquisition in progress>)
$$ $$ /opt/data/apprentis.isic@epfl.ch/nmr/f324b9c82ac5_reference_142-82-5/1/audita.txt
(   2,<2023-07-05 19:19:11.629 +0000>,<nmrsu>,<nmrf492r>,<go4>,<TopSpin 4.1.4>,
      <created by zg on 'AV4 400 MHZ' (nmrf492r) by user 'nmrsu'
       on data set with UUID 'b9e18160-1b68-11ee-adda-00139526683c'
       started at 2023-07-05 19:18:30.497 +0000, POWCHK enabled, PULCHK disabled,
       completed at 2023-07-05 19:19:11.625 +0000
       configuration hash MD5:
       CD 8D D6 62 70 46 CF 44 22 D8 1D DE BA 17 57 A5
       double data hash MD5: 32K
       34 5C 0D F8 39 E5 E7 3D F0 2E 0E 52 A5 52 23 2C>)
(   3,<2023-07-05 21:19:08.971 +0200>,<nmrsu>,<nmrf492r>,<xwish3>,<TopSpin 4.1.4>,
      <ICON-NMR User ID: apprentis.isic@epfl.ch
       double data hash MD5: 32K
       34 5C 0D F8 39 E5 E7 3D F0 2E 0E 52 A5 52 23 2C>)
(   4,<2023-07-05 21:19:10.765 +0200>,<nmrsu/apprentis.isic@epfl.ch>,<nmrf492r>,<proc1d>,<TopSpin 4.1.4>,
      <Start of raw data processing
       ef LB = 0.3 FT_mod = 6 PKNL = 1 SI = 64K 
       data hash MD5: 64K
       C6 F5 B4 C8 44 D5 23 03 BA CF 6D F2 43 1E B4 F1>)
(   5,<2023-07-05 21:19:13.350 +0200>,<nmrsu/apprentis.isic@epfl.ch>,<nmrf492r>,<proc1d>,<TopSpin 4.1.4>,
      <apk0 
       data hash MD5: 64K
       1C AB E3 FF 4A 82 03 2A DF 39 61 B8 4B 0F C6 CE>)
(   6,<2023-07-05 21:19:13.417 +0200>,<nmrsu/apprentis.isic@epfl.ch>,<nmrf492r>,<proc1d>,<TopSpin 4.1.4>,
      <abs ABSG = 5 
       data hash MD5: 64K
       74 3F 0A 64 14 75 F3 1A D8 1E 6A EB 62 4E D9 B1>)
(   7,<2023-07-05 21:19:13.434 +0200>,<nmrsu/apprentis.isic@epfl.ch>,<nmrf492r>,<peak>,<TopSpin 4.1.4>,
      <1D Peak picking
       data hash MD5: 64K
       74 3F 0A 64 14 75 F3 1A D8 1E 6A EB 62 4E D9 B1>)
(   8,<2023-07-05 21:19:13.474 +0200>,<nmrsu/apprentis.isic@epfl.ch>,<nmrf492r>,<xwish3>,<TopSpin 4.1.4>,
      <ICON-NMR User ID: apprentis.isic@epfl.ch
       data hash MD5: 64K
       74 3F 0A 64 14 75 F3 1A D8 1E 6A EB 62 4E D9 B1>)
(   9,<2023-07-05 22:06:29.426 +0200>,<nmrsu>,<nmrf492r>,<peak>,<TopSpin 4.1.4>,
      <1D Peak picking
       data hash MD5: 64K
       74 3F 0A 64 14 75 F3 1A D8 1E 6A EB 62 4E D9 B1>)
(  10,<2023-10-23 15:46:42.964 +0200>,<nmrsu>,<nmrf492r>,<proc1d>,<TopSpin 4.1.4>,
      <Start of raw data processing
       em LB = 0.3 SI = 64K 
       data hash MD5: 64K
       9A ED 60 6D 84 EE 65 C1 FB 2B 17 40 B0 87 EE 5E>)
(  11,<2023-10-23 15:46:43.011 +0200>,<nmrsu>,<nmrf492r>,<proc1d>,<TopSpin 4.1.4>,
      <ft FT_mod = 6 PKNL = 1 SI = 64K 
       data hash MD5: 64K
       D5 17 94 36 95 59 AF BA BC 67 45 E2 90 D0 70 67>)
(  12,<2023-10-23 15:46:43.247 +0200>,<nmrsu>,<nmrf492r>,<proc1d>,<TopSpin 4.1.4>,
      <apk 
       data hash MD5: 64K
       C1 C0 EE 4D 24 88 A2 18 BF 2A 2C 9D 31 B7 D2 CA>)
(  13,<2023-10-23 15:46:43.296 +0200>,<nmrsu>,<nmrf492r>,<proc1d>,<TopSpin 4.1.4>,
      <abs n ABSG = 5 
       data hash MD5: 64K
       52 FD E7 5E 09 CB E0 13 44 FF 43 31 18 7D 0C 69>)
(  14,<2023-10-23 15:46:45.894 +0200>,<nmrsu>,<nmrf492r>,<cprserver>,<TopSpin 4.1.4>,
      <changed parameter F1 SR to 0>)
(  15,<2023-11-01 08:32:23.935 +0100>,<nmrsu>,<nmrf492r>,<proc1d>,<TopSpin 4.1.4>,
      <Start of raw data processing
       em LB = 0.3 SI = 64K 
       data hash MD5: 64K
       9A ED 60 6D 84 EE 65 C1 FB 2B 17 40 B0 87 EE 5E>)
(  16,<2023-11-01 08:32:24.248 +0100>,<nmrsu>,<nmrf492r>,<proc1d>,<TopSpin 4.1.4>,
      <ft FT_mod = 6 PKNL = 1 SI = 64K 
       data hash MD5: 64K
       D5 17 94 36 95 59 AF BA BC 67 45 E2 90 D0 70 67>)
(  17,<2023-11-01 08:32:24.531 +0100>,<nmrsu>,<nmrf492r>,<proc1d>,<TopSpin 4.1.4>,
      <apk 
       data hash MD5: 64K
       C1 C0 EE 4D 24 88 A2 18 BF 2A 2C 9D 31 B7 D2 CA>)
(  18,<2023-11-01 08:32:24.557 +0100>,<nmrsu>,<nmrf492r>,<proc1d>,<TopSpin 4.1.4>,
      <abs n ABSG = 5 
       data hash MD5: 64K
       52 FD E7 5E 09 CB E0 13 44 FF 43 31 18 7D 0C 69>)
$$ ##END=
$$ 
$$ $$ hash MD5
$$ $$ 75 84 3A A3 7B 4C 15 3D D6 02 5C B5 62 B0 40 8A
##$RELAX= 
##$BRUKER FILE EXP=format.temp
$$ EDIT_PAR COMMAND FILE
$$ 
$$ DI_MODE         LONG
$$ ED_ENTRY        ACQU
$$ ORDER           FILE
$$ 
$$ 
$$ HEADER		"F2 - Acquisition Parameters"
$$ T_NAME		Date_
$$ 		TYPE	R64
$$ 		CLASS	ACQU
$$ 		SUBRANGE 0.0 50000000
$$ 		REL	"Date_=itodate(DATE)"
$$ 		INV_REL	"DATE=datetoi(Date_,DATE)"
$$ 		FORMAT	"%14.0f"
$$ 		TEXT	" "
$$ END
$$ T_NAME		Time
$$ 		TYPE	R32
$$ 		CLASS	ACQU
$$ 		SUBRANGE 0.0 1000000
$$ 		REL	"Time=itotime(DATE)"
$$ 		INV_REL	"DATE=timetoi(Time,DATE)"
$$ 		FORMAT	"%14.2f h"
$$ 		TEXT	" "
$$ END
$$ NAME		INSTRUM
$$ 		TEXT	" "
$$ END
$$ NAME		PROBHD
$$ 		FORMAT	"%14.14s"
$$ 		TEXT	" "
$$ END
$$ NAME		PULPROG
$$ 		TEXT	" "
$$ END
$$ NAME		TD
$$ 		TEXT	" "
$$ END
$$ NAME		SOLVENT
$$ 		TEXT	" "
$$ END
$$ NAME		NS
$$ 		TEXT	" "
$$ END
$$ NAME		DS
$$ 		TEXT	" "
$$ END
$$ T_NAME		SWH
$$ 		TYPE	R32
$$ 		CLASS	ACQU
$$ 		SUBRANGE 0.0 1e8
$$ 		REL	"SWH=SW*SFO1"
$$ 		INV_REL "SW=SWH/SFO1"
$$ 		UNIT	"Hz"
$$ 		FORMAT	"%14.3f Hz"
$$ 		TEXT	" "
$$ END
$$ T_NAME          FIDRES
$$                 TYPE    R32
$$                 CLASS   ACQU
$$                 SUBRANGE 0.0 100000
$$                 REL     "FIDRES=2*SW*SFO1/TD"
$$                 INV_REL "TD = nextpow(2*SW*SFO1/FIDRES)"
$$ 		UNIT	"Hz"
$$ 		FORMAT	"%14.6f Hz"
$$ 		TEXT	" "
$$ END
$$ T_NAME          AQ
$$ 		TYPE	R32
$$ 		CLASS	ACQU
$$ 		SUBRANGE 0.0 1000
$$ 		REL	"AQ=aqcalc(SW,SFO1,TD,DIGTYP)"
$$ 		INV_REL	"TD=tdcalc(SW,SFO1,1.0e6*AQ,DIGTYP)"
$$ 		UNIT	"sec"
$$ 		FORMAT	"%14.7f sec"
$$ 		TEXT	" "
$$ END
$$ NAME		RG
$$ 		TEXT	" "
$$ END
$$ T_NAME          DW
$$ 		TYPE	R32
$$ 		CLASS	ACQU
$$ 		SUBRANGE 0.0 1000000
$$ 		REL	"DW=1/(2*SW*SFO1)"
$$ 		INV_REL	"SW=1000000/(2*(0.005+DW)*SFO1)"
$$ 		UNIT	"usec"
$$ 		FORMAT	"%14.3lf usec"
$$ 		TEXT	" "
$$ END
$$ NAME		DE
$$ 		FORMAT	"%14.2f usec"
$$ 		TEXT	" "
$$ END
$$ NAME		TE
$$ 		FORMAT	"%14.1f K"
$$ 		TEXT	" "
$$ END
$$ T_NAME		D1
$$ TYPE	R32
$$ CLASS	ACQU
$$ SUBRANGE 0.0 1e38
$$ REL	"D1=D[1]"
$$ INV_REL	"D[1]=D1"
$$ UNIT	"sec"
$$ FORMAT	"%14.8f sec"
$$ TEXT	" "
$$ END
$$ NAME		TD0
$$ 		TEXT	" "
$$ END
$$ NAME		SFO1
$$ FORMAT	"%14.7f MHz"
$$ TEXT	" "
$$ END
$$ NAME		NUC1
$$ NONEDIT
$$ TEXT	" "
$$ END
$$ T_NAME		P0
$$ TYPE	R32
$$ CLASS	ACQU
$$ SUBRANGE 0.0 1.0e10
$$ REL	"P0=P[0]"
$$ INV_REL	"P[0]=P0"
$$ UNIT	"usec"
$$ FORMAT	"%14.2f usec"
$$ TEXT	" "
$$ END
$$ T_NAME		P1
$$ TYPE	R32
$$ CLASS	ACQU
$$ SUBRANGE 0.0 1.0e10
$$ REL	"P1=P[1]"
$$ INV_REL	"P[1]=P1"
$$ UNIT	"usec"
$$ FORMAT	"%14.2f usec"
$$ TEXT	" "
$$ END
$$ T_NAME		PLW1
$$ TYPE	R32
$$ CLASS	ACQU
$$ REL	"PLW1=PLW[1]"
$$ INV_REL	"PLW[1]=PLW1"
$$ UNIT	"W"
$$ FORMAT	"%14.8f W"
$$ TEXT	"power PLW1 "
$$ END
##$RELAX= 
##$BRUKER FILE EXP=scon2
$$ ##TITLE= Parameter file, TopSpin 4.1.4
$$ ##JCAMPDX= 5.0
$$ ##DATATYPE= Parameter Values
$$ ##NPOINTS= 1	$$ modification sequence number
$$ ##ORIGIN= Bruker BioSpin GmbH
$$ ##OWNER= nmrsu
$$ $$ 2023-07-05 21:18:27.508 +0200  nmrsu@nmrf492r
$$ $$ /opt/data/apprentis.isic@epfl.ch/nmr/f324b9c82ac5_reference_142-82-5/1/scon2
$$ $$ process /opt/topspin4.1.4/prog/mod/acqdataserver
$$ ##$BLKTR= (0..32)
$$ 3 3 3 3 3 3 3 3 3 3 3 3 3 3 3 3 3 3 3 3 3 3 3 3 3 3 3 3 3 3 3 3 3
$$ ##$DE1= 4.5
$$ ##$DEADC= 0.5
$$ ##$DEPA= 4.5
$$ ##$DERX= 1.5
$$ ##$GRADPRE= (0..1)
$$ 10 10
$$ ##$HD_BLKTR= (0..32)
$$ 1 1 1 1 1 1 1 1 1 1 1 1 1 1 1 1 1 1 1 1 1 1 1 1 1 1 1 1 1 1 1 1 1
$$ ##$HD_DE1= 5
$$ ##$HD_DEADC= 0
$$ ##$HD_DEPA= 2.5
$$ ##$HD_DERX= 0
$$ ##END=
##$RELAX= 
##$BRUKER FILE EXP=prosol_History
##$RELAX= 
##$BRUKER FILE EXP=shimvalues
$$ # Wed Jul  5 19:19:10 2023
$$ #$$PROBEIDENTIFIER=Z108618_0808
$$ #$$PROBENAME=PA BBO 400S1 BBF-H-D-05 Z
$$ #$$SHIMID=313232
$$ #
$$ # Active Shim Gradients
$$ #
$$ Z           		8666            
$$ Z2          		4414            
$$ Z3          		-916            
$$ Z4          		-7077           
$$ Z5          		4648            
$$ Z6          		20510           
$$ X           		-10762          
$$ XZ          		-1407           
$$ XZ2         		-800            
$$ XZ3         		2230            
$$ Y           		3513            
$$ YZ          		19923           
$$ YZ2         		27262           
$$ YZ3         		-7930           
$$ XY          		-612            
$$ XYZ         		10082           
$$ (X2-Y2)     		-22912          
$$ (X2-Y2)Z    		8771            
$$ X3          		-1763           
$$ Y3          		2664            
$$ #
$$ # Lock Parameter
$$ #
$$ FIELD		6771.637
$$ LOCKPHASE		 341.100
$$ LOCKPOWER		 -30.000
$$ LOCKGAIN		 127.679
$$ LOCKDC		 -75.000
$$ LOCKSHIFT		   7.240
$$ LOOPGAIN		 -12.000
$$ LOOPTIME		   0.400
$$ LOOPFILTER		 100.000
$$ #
$$ IEEE64_VERSION_CODE 1
$$ #
$$ # Shim currents 
$$ #
$$ SHIM_SETTING [ 1]     4202.96305245
$$ SHIM_SETTING [ 2]     2185.14457567
$$ SHIM_SETTING [ 3]     -481.66395904
$$ SHIM_SETTING [ 4]    -3722.56026870
$$ SHIM_SETTING [ 5]     2444.69091235
$$ SHIM_SETTING [ 6]    -5660.81199981
$$ SHIM_SETTING [ 7]     -740.08199998
$$ SHIM_SETTING [ 8]     -420.79999999
$$ SHIM_SETTING [ 9]   -12051.71199960
$$ SHIM_SETTING [10]     -321.91199999
$$ SHIM_SETTING [11]     1847.83799994
$$ SHIM_SETTING [12]    10479.49799965
$$ SHIM_SETTING [13]    14339.81199952
$$ SHIM_SETTING [14]    -4171.18099986
$$ SHIM_SETTING [15]    10788.21894771
$$ SHIM_SETTING [16]     4613.28699984
$$ SHIM_SETTING [17]     1173.08999996
$$ SHIM_SETTING [18]     5303.07899982
$$ SHIM_SETTING [19]     -927.57899997
$$ SHIM_SETTING [20]     1401.22599995
##$RELAX= 
##$BRUKER FILE EXP=uxnmr.par
$$ ##TITLE= Parameter file, TopSpin 4.1.4
$$ ##JCAMPDX= 5.0
$$ ##DATATYPE= Parameter Values
$$ ##NPOINTS= 2	$$ modification sequence number
$$ ##ORIGIN= Bruker BioSpin GmbH
$$ ##OWNER= root
$$ $$ 2022-02-07 06:59:35.571 +0000  root@BladeEpu
$$ $$ /opt/topspin/conf/instr/spect/uxnmr.par
$$ $$ process /opt/topspin/prog/mod/hconfserver
$$ ##$ACBTAT= (0..64)
$$ 0 66 72 50 0 0 0 0 0 0 0 0 0 0 0 0 0 0 0 0 0 0 0 0 0 0 0 0 0 0 0 0 0 0
$$ 0 0 0 0 0 0 0 0 0 0 0 0 0 0 0 0 0 0 0 0 0 0 0 0 0 0 0 0 0 0 0
$$ ##$ACBTBLK= (0..64)
$$ 0 34 33 41 0 0 0 0 0 0 0 0 0 0 0 0 0 0 0 0 0 0 0 0 0 0 0 0 0 0 0 0 0 0
$$ 0 0 0 0 0 0 0 0 0 0 0 0 0 0 0 0 0 0 0 0 0 0 0 0 0 0 0 0 0 0 0
$$ ##$ACBTCTL= (0..64)
$$ 0 6 6 6 0 0 0 0 0 0 0 0 0 0 0 0 0 0 0 0 0 0 0 0 0 0 0 0 0 0 0 0 0 0 0 0
$$ 0 0 0 0 0 0 0 0 0 0 0 0 0 0 0 0 0 0 0 0 0 0 0 0 0 0 0 0 0
$$ ##$ACBTDI= (0..64)
$$ 0 -1062706420 -1062706420 -1062706421 0 0 0 0 0 0 0 0 0 0 0 0 0 0 0 0 0
$$ 0 0 0 0 0 0 0 0 0 0 0 0 0 0 0 0 0 0 0 0 0 0 0 0 0 0 0 0 0 0 0 0 0 0 0 0
$$ 0 0 0 0 0 0 0 0
$$ ##$ACBTDM= (0..64)
$$ 0 10 25 10 0 0 0 0 0 0 0 0 0 0 0 0 0 0 0 0 0 0 0 0 0 0 0 0 0 0 0 0 0 0
$$ 0 0 0 0 0 0 0 0 0 0 0 0 0 0 0 0 0 0 0 0 0 0 0 0 0 0 0 0 0 0 0
$$ ##$ACBTFHI= (0..64)
$$ 0 600 600 62 0 0 0 0 0 0 0 0 0 0 0 0 0 0 0 0 0 0 0 0 0 0 0 0 0 0 0 0 0
$$ 0 0 0 0 0 0 0 0 0 0 0 0 0 0 0 0 0 0 0 0 0 0 0 0 0 0 0 0 0 0 0 0
$$ ##$ACBTFL= (0..64)
$$ 0 248 248 8 0 0 0 0 0 0 0 0 0 0 0 0 0 0 0 0 0 0 0 0 0 0 0 0 0 0 0 0 0 0
$$ 0 0 0 0 0 0 0 0 0 0 0 0 0 0 0 0 0 0 0 0 0 0 0 0 0 0 0 0 0 0 0
$$ ##$ACBTFLO= (0..64)
$$ 0 15 180 60 0 0 0 0 0 0 0 0 0 0 0 0 0 0 0 0 0 0 0 0 0 0 0 0 0 0 0 0 0 0
$$ 0 0 0 0 0 0 0 0 0 0 0 0 0 0 0 0 0 0 0 0 0 0 0 0 0 0 0 0 0 0 0
$$ ##$ACBTINP= (0..64)
$$ 0 2 1 9 0 0 0 0 0 0 0 0 0 0 0 0 0 0 0 0 0 0 0 0 0 0 0 0 0 0 0 0 0 0 0 0
$$ 0 0 0 0 0 0 0 0 0 0 0 0 0 0 0 0 0 0 0 0 0 0 0 0 0 0 0 0 0
$$ ##$ACBTOUT= (0..64)
$$ 0 0 3 1 0 0 0 0 0 0 0 0 0 0 0 0 0 0 0 0 0 0 0 0 0 0 0 0 0 0 0 0 0 0 0 0
$$ 0 0 0 0 0 0 0 0 0 0 0 0 0 0 0 0 0 0 0 0 0 0 0 0 0 0 0 0 0
$$ ##$ACBTPO= (0..64)
$$ 0 500000 100000 5000 0 0 0 0 0 0 0 0 0 0 0 0 0 0 0 0 0 0 0 0 0 0 0 0 0
$$ 0 0 0 0 0 0 0 0 0 0 0 0 0 0 0 0 0 0 0 0 0 0 0 0 0 0 0 0 0 0 0 0 0 0 0 0
$$ ##$ACBTPW= (0..64)
$$ 0 100 100 1000 0 0 0 0 0 0 0 0 0 0 0 0 0 0 0 0 0 0 0 0 0 0 0 0 0 0 0 0
$$ 0 0 0 0 0 0 0 0 0 0 0 0 0 0 0 0 0 0 0 0 0 0 0 0 0 0 0 0 0 0 0 0 0
$$ ##$ACBTSB= (0..64)
$$ 0 8227 8260 0 0 0 0 0 0 0 0 0 0 0 0 0 0 0 0 0 0 0 0 0 0 0 0 0 0 0 0 0 0
$$ 0 0 0 0 0 0 0 0 0 0 0 0 0 0 0 0 0 0 0 0 0 0 0 0 0 0 0 0 0 0 0 0
$$ ##$ACBTSDT= (0..64)
$$ 0 2 2 2 0 0 0 0 0 0 0 0 0 0 0 0 0 0 0 0 0 0 0 0 0 0 0 0 0 0 0 0 0 0 0 0
$$ 0 0 0 0 0 0 0 0 0 0 0 0 0 0 0 0 0 0 0 0 0 0 0 0 0 0 0 0 0
$$ ##$AMPDFLT= no
$$ ##$AdmCrpWbWiring= (0..1)
$$ 0 0
$$ ##$AppEth= <no>
$$ ##$AppPort= <no>
$$ ##$BACSAIR= yes
$$ ##$BACSCAP= 0
$$ ##$BACSDEL= 10
$$ ##$BACSFCM= no
$$ ##$BACSOPT= <>
$$ ##$BACSTY= <no>
$$ ##$BFREQ= 400.13
$$ ##$BGAETH= (0..9)
$$ <no> <no> <no> <no> <no> <no> <no> <no> <no> <no>
$$ ##$BIRDS= yes
$$ ##$BMPC= 0
$$ ##$BMPCTY= <no>
$$ ##$BPSUTY= <no>
$$ ##$BSAETH= (0..9)
$$ <no> <no> <no> <no> <no> <no> <no> <no> <no> <no>
$$ ##$BSMS= 2
$$ ##$BSMS19FLock= no
$$ ##$BSMSETH= <192.168.99.11>
$$ ##$BgaChFac2= (0..9)
$$ 0 0 0 0 0 0 0 0 0 0
$$ ##$BgaChMap= (0..9)
$$ 0 0 0 0 0 0 0 0 0 0
$$ ##$BgaChMaxv= (0..9)
$$ 0 0 0 0 0 0 0 0 0 0
$$ ##$BgaChRouting= (0..63)
$$ 0 0 0 0 0 0 0 0 0 0 0 0 0 0 0 0 0 0 0 0 0 0 0 0 0 0 0 0 0 0 0 0 0 0 0 0
$$ 0 0 0 0 0 0 0 0 0 0 0 0 0 0 0 0 0 0 0 0 0 0 0 0 0 0 0 0
$$ ##$BgaChShimMap= (0..9)
$$ 0 0 0 0 0 0 0 0 0 0
$$ ##$BgaChShimMaxv= (0..9)
$$ 0 0 0 0 0 0 0 0 0 0
$$ ##$BlaEth= (0..31)
$$ <192.168.99.12> <192.168.99.11> <no> <no> <no> <no> <no> <no> <no> <no>
$$ <no> <no> <no> <no> <no> <no> <no> <no> <no> <no> <no> <no> <no> <no> <no>
$$ <no> <no> <no> <no> <no> <no> <no>
$$ ##$BlaHpLpViaTTL= (0..31)
$$ 0 0 0 0 0 0 0 0 0 0 0 0 0 0 0 0 0 0 0 0 0 0 0 0 0 0 0 0 0 0 0 0
$$ ##$BlaNam= (0..31)
$$ <AV4 BLABBH500/100 200-600> <BSMS/2 LOCK TRANSCEIVER 400> <> <> <> <> <>
$$ <> <> <> <> <> <> <> <> <> <> <> <> <> <> <> <> <> <> <> <> <> <> <> <>
$$ <>
$$ ##$BlaPN= (0..31)
$$ <W144061> <Z109888> <> <> <> <> <> <> <> <> <> <> <> <> <> <> <> <> <>
$$ <> <> <> <> <> <> <> <> <> <> <> <> <>
$$ ##$BlaSN= (0..31)
$$ <000093> <02329> <> <> <> <> <> <> <> <> <> <> <> <> <> <> <> <> <> <>
$$ <> <> <> <> <> <> <> <> <> <> <> <>
$$ ##$BmuEth= <no>
$$ ##$BmuFw= <no>
$$ ##$BmuPn= <no>
$$ ##$BmuSn= <no>
$$ ##$BnlEth= <no>
$$ ##$BnlFw= <no>
$$ ##$BnlPn= <no>
$$ ##$BnlSn= <no>
$$ ##$BpduEth= (0..7)
$$ <no> <no> <no> <no> <no> <no> <no> <no>
$$ ##$BsaChMap1= (0..9)
$$ 0 0 0 0 0 0 0 0 0 0
$$ ##$BsaChMap2= (0..9)
$$ 0 0 0 0 0 0 0 0 0 0
$$ ##$BsaChShimMaxv= (0..9)
$$ 0 0 0 0 0 0 0 0 0 0
$$ ##$BsmsAuxEth= <no>
$$ ##$BsmsLockNuclei= (0..15)
$$ <2H> <no> <no> <no> <no> <no> <no> <no> <no> <no> <no> <no> <no> <no> <no>
$$ <no>
$$ ##$CPDBTY= <no>
$$ ##$CRCOTY= <no>
$$ ##$CSW1= (0..31)
$$ 2 1 9 0 0 0 0 0 0 0 0 0 0 0 0 0 0 0 0 0 0 0 0 0 0 0 0 0 0 0 0 0
$$ ##$CSW2= (0..31)
$$ 0 0 0 0 0 0 0 0 0 0 0 0 0 0 0 0 0 0 0 0 0 0 0 0 0 0 0 0 0 0 0 0
$$ ##$CSWNUM= (0..15)
$$ 2 1 0 0 0 0 0 0 0 0 0 0 0 0 0 0
$$ ##$ConsolePnSn= <HCAB-40 / 57>
$$ ##$CryoCoolUnitEth= <no>
$$ ##$CryoCoolUnitFw= <no>
$$ ##$CryoCoolUnitPn= <no>
$$ ##$CryoCoolUnitSn= <no>
$$ ##$CryoProAccPnSn= <>
$$ ##$Ctb1Eth= <no>
$$ ##$CustRegisterNo= <>
$$ ##$DATSTAT= no
$$ ##$DPPFAC= 1
$$ ##$DRU= no
$$ ##$DateTimeCreated= <2022-02-07T06:58:43+0000>
$$ ##$Description= <AV4 400 MHZ>
$$ ##$DppType= 0
$$ ##$DrxFiltGrpDel= (0..23)
$$ <68,36,20,9,5,3,2> <68,36,20,9,5,3,2> <> <> <> <> <> <> <> <> <> <> <>
$$ <> <> <> <> <> <> <> <> <> <> <>
$$ ##$EcuType= 1
$$ ##$EpuMacAddress= <00:13:95:26:68:3c>
$$ ##$FCubeDrxDevice= (0..23)
$$ </dev/bbu/drx3.5> </dev/bbu/drx4.5> <> <> <> <> <> <> <> <> <> <> <> <>
$$ <> <> <> <> <> <> <> <> <> <>
$$ ##$FCubeEth= (0..23)
$$ <192.168.180.14> <192.168.180.18> <no> <no> <no> <no> <no> <no> <no> <no>
$$ <no> <no> <no> <no> <no> <no> <no> <no> <no> <no> <no> <no> <no> <no>
$$ ##$FCubeRtdDevice= (0..23)
$$ </dev/bbu/rtd3.4> </dev/bbu/rtd4.4> <> <> <> <> <> <> <> <> <> <> <> <>
$$ <> <> <> <> <> <> <> <> <> <>
$$ ##$FCubeSeqDevice= (0..23)
$$ <> <> <> <> <> <> <> <> <> <> <> <> <> <> <> <> <> <> <> <> <> <> <> <>
$$ ##$FGSVTY= <no>
$$ ##$FRONTTY= <no>
$$ ##$FUNCMOD= <>
$$ ##$FourPeriBdEth= <no>
$$ ##$FourShimBdEth= <no>
$$ ##$FourierPicsCon= no
$$ ##$FuncModBisDat= (0..7)
$$ 0 0 0 0 0 0 0 0
$$ ##$FuncModFRange= (0..7)
$$ <> <> <> <> <> <> <> <>
$$ ##$FuncModPN= (0..7)
$$ <> <> <> <> <> <> <> <>
$$ ##$FuncModSN= (0..7)
$$ <> <> <> <> <> <> <> <>
$$ ##$GCUTYPE= 20
$$ ##$GCubeEth= <192.168.180.38>
$$ ##$GCubeFpfAddr= (0..9)
$$ -1 -1 -1 -1 -1 -1 -1 -1 -1 -1
$$ ##$GCubeProcDevice= (0..1)
$$ </dev/bbu/gproc9.7> <no>
$$ ##$GCubeRtdDevice= (0..1)
$$ </dev/bbu/rtd9.4> <no>
$$ ##$GCubeSeqDevice= (0..1)
$$ <> <>
$$ ##$GCubeSpfAddr= (0..63)
$$ -1 -1 -1 -1 -1 -1 -1 -1 -1 -1 -1 -1 -1 -1 -1 -1 -1 -1 -1 -1 -1 -1 -1 -1
$$ -1 -1 -1 -1 -1 -1 -1 -1 -1 -1 -1 -1 -1 -1 -1 -1 -1 -1 -1 -1 -1 -1 -1 -1
$$ -1 -1 -1 -1 -1 -1 -1 -1 -1 -1 -1 -1 -1 -1 -1 -1
$$ ##$GPREDEL= 0
$$ ##$GPSCUTY= <no>
$$ ##$GRADRES= 1
$$ ##$Gctu2Eth= <no>
$$ ##$GcubeSaCtrEth= <no>
$$ ##$GradAmpMaxCurX= (0..10)
$$ 0 0 0 0 0 0 0 0 0 0 0
$$ ##$GradAmpMaxCurY= (0..10)
$$ 0 0 0 0 0 0 0 0 0 0 0
$$ ##$GradAmpMaxCurZ= (0..10)
$$ 9.99999904632568 0 0 0 0 0 0 0 0 0 0
$$ ##$GradAmpName= (0..9)
$$ <GAB in BSMS> <> <> <> <> <> <> <> <> <>
$$ ##$GradAmpPN= (0..9)
$$ <> <> <> <> <> <> <> <> <> <>
$$ ##$GradAmpSN= (0..9)
$$ <> <> <> <> <> <> <> <> <> <>
$$ ##$GradAmpType= (0..10)
$$ 2 0 0 0 0 0 0 0 0 0 0
$$ ##$GradPowClkTime= (0..9)
$$ 0 0 0 0 0 0 0 0 0 0
$$ ##$GradPowIcw= (0..9)
$$ 0 0 0 0 0 0 0 0 0 0
$$ ##$GradPowImax= (0..9)
$$ 0 0 0 0 0 0 0 0 0 0
$$ ##$GradPowType= (0..9)
$$ 0 0 0 0 0 0 0 0 0 0
$$ ##$GradPowVmax= (0..9)
$$ 0 0 0 0 0 0 0 0 0 0
$$ ##$HPTXLP= (0..3)
$$ -1 -1 -1 -1
$$ ##$HPTXPI= (0..3)
$$ 0 0 0 0
$$ ##$HPTXPO= (0..3)
$$ 0 0 0 0
$$ ##$HPTXTY= (0..3)
$$ 0 0 0 0
$$ ##$HpprCoverType= 2
$$ ##$IPSOTYPE= 0
$$ ##$LDUETH= <no>
$$ ##$LOCKCONF= <DLM>
$$ ##$LOCSWID= 0
$$ ##$LOCSWIF= 0
$$ ##$Location= <>
$$ ##$LtMasEth= <no>
$$ ##$LtMasType= 0
$$ ##$MAS= 0
$$ ##$MASETIME= 10
$$ ##$MASITIME= 10
$$ ##$MASTY= <no>
$$ ##$MAS_CT= 5
$$ ##$MAS_SG= 0
$$ ##$MAS_TO= 0
$$ ##$MagnCoilPnSn= <BZH0104070I02>
$$ ##$MagnDewarPnSn= <D325-54-6794>
$$ ##$MagnetPolarity= 1
$$ ##$MasEth= <no>
$$ ##$NAMPD= (0..32)
$$ <> <HPLNA 19F1H> <2H> <XBB19F 2HP> <> <> <> <> <> <> <> <> <> <> <> <>
$$ <> <> <> <> <> <> <> <> <> <> <> <> <> <> <> <> <>
$$ ##$NFCU= 2
$$ ##$NRCU= 2
$$ ##$NROUT= 0
$$ ##$NSGU= 2
$$ ##$NumActDetuneCtr= 0
$$ ##$NumVpu= 0
$$ ##$OrderNo= <HCAB-40_00057>
$$ ##$POWCHK= yes
$$ ##$PRAMD1= (0..7)
$$ 6 0 0 1610612736 0 0 0 0
$$ ##$PRAMD10= (0..7)
$$ 0 0 0 0 0 0 0 0
$$ ##$PRAMD11= (0..7)
$$ 0 0 0 0 0 0 0 0
$$ ##$PRAMD12= (0..7)
$$ 0 0 0 0 0 0 0 0
$$ ##$PRAMD13= (0..7)
$$ 0 0 0 0 0 0 0 0
$$ ##$PRAMD14= (0..7)
$$ 0 0 0 0 0 0 0 0
$$ ##$PRAMD15= (0..7)
$$ 0 0 0 0 0 0 0 0
$$ ##$PRAMD16= (0..7)
$$ 0 0 0 0 0 0 0 0
$$ ##$PRAMD17= (0..7)
$$ 0 0 0 0 0 0 0 0
$$ ##$PRAMD18= (0..7)
$$ 0 0 0 0 0 0 0 0
$$ ##$PRAMD19= (0..7)
$$ 0 0 0 0 0 0 0 0
$$ ##$PRAMD2= (0..7)
$$ 0 1048576 0 536870912 0 1048576 0 536870912
$$ ##$PRAMD20= (0..7)
$$ 0 0 0 0 0 0 0 0
$$ ##$PRAMD21= (0..7)
$$ 0 0 0 0 0 0 0 0
$$ ##$PRAMD22= (0..7)
$$ 0 0 0 0 0 0 0 0
$$ ##$PRAMD23= (0..7)
$$ 0 0 0 0 0 0 0 0
$$ ##$PRAMD24= (0..7)
$$ 0 0 0 0 0 0 0 0
$$ ##$PRAMD25= (0..7)
$$ 0 0 0 0 0 0 0 0
$$ ##$PRAMD26= (0..7)
$$ 0 0 0 0 0 0 0 0
$$ ##$PRAMD27= (0..7)
$$ 0 0 0 0 0 0 0 0
$$ ##$PRAMD28= (0..7)
$$ 0 0 0 0 0 0 0 0
$$ ##$PRAMD29= (0..7)
$$ 0 0 0 0 0 0 0 0
$$ ##$PRAMD3= (0..7)
$$ 2147483644 2147483647 2147483647 603979775 0 0 0 0
$$ ##$PRAMD30= (0..7)
$$ 0 0 0 0 0 0 0 0
$$ ##$PRAMD31= (0..7)
$$ 0 0 0 0 0 0 0 0
$$ ##$PRAMD32= (0..7)
$$ 0 0 0 0 0 0 0 0
$$ ##$PRAMD4= (0..7)
$$ 0 0 0 0 0 0 0 0
$$ ##$PRAMD5= (0..7)
$$ 0 0 0 0 0 0 0 0
$$ ##$PRAMD6= (0..7)
$$ 0 0 0 0 0 0 0 0
$$ ##$PRAMD7= (0..7)
$$ 0 0 0 0 0 0 0 0
$$ ##$PRAMD8= (0..7)
$$ 0 0 0 0 0 0 0 0
$$ ##$PRAMD9= (0..7)
$$ 0 0 0 0 0 0 0 0
$$ ##$PRAMLED= (0..1)
$$ 0 0
$$ ##$PRAMP= (0..9)
$$ <no> <no> <no> <no> <no> <no> <no> <no> <no> <no>
$$ ##$PRAMPTP= 1
$$ ##$PREEMPTYPE= 0
$$ ##$PREREC= (0..31)
$$ 1 1 2 0 0 0 0 0 0 0 0 0 0 0 0 0 0 0 0 0 0 0 0 0 0 0 0 0 0 0 0 0
$$ ##$PTSFMX= (0..23)
$$ 1290 1290 0 0 0 0 0 0 0 0 0 0 0 0 0 0 0 0 0 0 0 0 0 0
$$ ##$PULCHK= no
$$ ##$PduEth= (0..7)
$$ <192.168.99.99> <no> <no> <no> <no> <no> <no> <no>
$$ ##$PerMagATempSens= no
$$ ##$PerMagEth= <no>
$$ ##$PerMagFluxSens= no
$$ ##$PerMagMTempSens= no
$$ ##$PramDutyCycPerc= (0..31)
$$ 4 2 2 0 0 0 0 0 0 0 0 0 0 0 0 0 0 0 0 0 0 0 0 0 0 0 0 0 0 0 0 0
$$ ##$PramPPowNucW1= (0..127)
$$ <> <> <> <> <> <> <> <> <> <> <> <> <> <> <> <> <> <> <> <> <> <> <> <>
$$ <> <> <> <> <> <> <> <> <> <> <> <> <> <> <> <> <> <> <> <> <> <> <> <>
$$ <> <> <> <> <> <> <> <> <> <> <> <> <> <> <> <> <> <> <> <> <> <> <> <>
$$ <> <> <> <> <> <> <> <> <> <> <> <> <> <> <> <> <> <> <> <> <> <> <> <>
$$ <> <> <> <> <> <> <> <> <> <> <> <> <> <> <> <> <> <> <> <> <> <> <> <>
$$ <> <> <> <> <> <> <> <>
$$ ##$PramPPowNucW10= (0..127)
$$ <> <> <> <> <> <> <> <> <> <> <> <> <> <> <> <> <> <> <> <> <> <> <> <>
$$ <> <> <> <> <> <> <> <> <> <> <> <> <> <> <> <> <> <> <> <> <> <> <> <>
$$ <> <> <> <> <> <> <> <> <> <> <> <> <> <> <> <> <> <> <> <> <> <> <> <>
$$ <> <> <> <> <> <> <> <> <> <> <> <> <> <> <> <> <> <> <> <> <> <> <> <>
$$ <> <> <> <> <> <> <> <> <> <> <> <> <> <> <> <> <> <> <> <> <> <> <> <>
$$ <> <> <> <> <> <> <> <>
$$ ##$PramPPowNucW11= (0..127)
$$ <> <> <> <> <> <> <> <> <> <> <> <> <> <> <> <> <> <> <> <> <> <> <> <>
$$ <> <> <> <> <> <> <> <> <> <> <> <> <> <> <> <> <> <> <> <> <> <> <> <>
$$ <> <> <> <> <> <> <> <> <> <> <> <> <> <> <> <> <> <> <> <> <> <> <> <>
$$ <> <> <> <> <> <> <> <> <> <> <> <> <> <> <> <> <> <> <> <> <> <> <> <>
$$ <> <> <> <> <> <> <> <> <> <> <> <> <> <> <> <> <> <> <> <> <> <> <> <>
$$ <> <> <> <> <> <> <> <>
$$ ##$PramPPowNucW12= (0..127)
$$ <> <> <> <> <> <> <> <> <> <> <> <> <> <> <> <> <> <> <> <> <> <> <> <>
$$ <> <> <> <> <> <> <> <> <> <> <> <> <> <> <> <> <> <> <> <> <> <> <> <>
$$ <> <> <> <> <> <> <> <> <> <> <> <> <> <> <> <> <> <> <> <> <> <> <> <>
$$ <> <> <> <> <> <> <> <> <> <> <> <> <> <> <> <> <> <> <> <> <> <> <> <>
$$ <> <> <> <> <> <> <> <> <> <> <> <> <> <> <> <> <> <> <> <> <> <> <> <>
$$ <> <> <> <> <> <> <> <>
$$ ##$PramPPowNucW13= (0..127)
$$ <> <> <> <> <> <> <> <> <> <> <> <> <> <> <> <> <> <> <> <> <> <> <> <>
$$ <> <> <> <> <> <> <> <> <> <> <> <> <> <> <> <> <> <> <> <> <> <> <> <>
$$ <> <> <> <> <> <> <> <> <> <> <> <> <> <> <> <> <> <> <> <> <> <> <> <>
$$ <> <> <> <> <> <> <> <> <> <> <> <> <> <> <> <> <> <> <> <> <> <> <> <>
$$ <> <> <> <> <> <> <> <> <> <> <> <> <> <> <> <> <> <> <> <> <> <> <> <>
$$ <> <> <> <> <> <> <> <>
$$ ##$PramPPowNucW14= (0..127)
$$ <> <> <> <> <> <> <> <> <> <> <> <> <> <> <> <> <> <> <> <> <> <> <> <>
$$ <> <> <> <> <> <> <> <> <> <> <> <> <> <> <> <> <> <> <> <> <> <> <> <>
$$ <> <> <> <> <> <> <> <> <> <> <> <> <> <> <> <> <> <> <> <> <> <> <> <>
$$ <> <> <> <> <> <> <> <> <> <> <> <> <> <> <> <> <> <> <> <> <> <> <> <>
$$ <> <> <> <> <> <> <> <> <> <> <> <> <> <> <> <> <> <> <> <> <> <> <> <>
$$ <> <> <> <> <> <> <> <>
$$ ##$PramPPowNucW15= (0..127)
$$ <> <> <> <> <> <> <> <> <> <> <> <> <> <> <> <> <> <> <> <> <> <> <> <>
$$ <> <> <> <> <> <> <> <> <> <> <> <> <> <> <> <> <> <> <> <> <> <> <> <>
$$ <> <> <> <> <> <> <> <> <> <> <> <> <> <> <> <> <> <> <> <> <> <> <> <>
$$ <> <> <> <> <> <> <> <> <> <> <> <> <> <> <> <> <> <> <> <> <> <> <> <>
$$ <> <> <> <> <> <> <> <> <> <> <> <> <> <> <> <> <> <> <> <> <> <> <> <>
$$ <> <> <> <> <> <> <> <>
$$ ##$PramPPowNucW16= (0..127)
$$ <> <> <> <> <> <> <> <> <> <> <> <> <> <> <> <> <> <> <> <> <> <> <> <>
$$ <> <> <> <> <> <> <> <> <> <> <> <> <> <> <> <> <> <> <> <> <> <> <> <>
$$ <> <> <> <> <> <> <> <> <> <> <> <> <> <> <> <> <> <> <> <> <> <> <> <>
$$ <> <> <> <> <> <> <> <> <> <> <> <> <> <> <> <> <> <> <> <> <> <> <> <>
$$ <> <> <> <> <> <> <> <> <> <> <> <> <> <> <> <> <> <> <> <> <> <> <> <>
$$ <> <> <> <> <> <> <> <>
$$ ##$PramPPowNucW17= (0..127)
$$ <> <> <> <> <> <> <> <> <> <> <> <> <> <> <> <> <> <> <> <> <> <> <> <>
$$ <> <> <> <> <> <> <> <> <> <> <> <> <> <> <> <> <> <> <> <> <> <> <> <>
$$ <> <> <> <> <> <> <> <> <> <> <> <> <> <> <> <> <> <> <> <> <> <> <> <>
$$ <> <> <> <> <> <> <> <> <> <> <> <> <> <> <> <> <> <> <> <> <> <> <> <>
$$ <> <> <> <> <> <> <> <> <> <> <> <> <> <> <> <> <> <> <> <> <> <> <> <>
$$ <> <> <> <> <> <> <> <>
$$ ##$PramPPowNucW18= (0..127)
$$ <> <> <> <> <> <> <> <> <> <> <> <> <> <> <> <> <> <> <> <> <> <> <> <>
$$ <> <> <> <> <> <> <> <> <> <> <> <> <> <> <> <> <> <> <> <> <> <> <> <>
$$ <> <> <> <> <> <> <> <> <> <> <> <> <> <> <> <> <> <> <> <> <> <> <> <>
$$ <> <> <> <> <> <> <> <> <> <> <> <> <> <> <> <> <> <> <> <> <> <> <> <>
$$ <> <> <> <> <> <> <> <> <> <> <> <> <> <> <> <> <> <> <> <> <> <> <> <>
$$ <> <> <> <> <> <> <> <>
$$ ##$PramPPowNucW19= (0..127)
$$ <> <> <> <> <> <> <> <> <> <> <> <> <> <> <> <> <> <> <> <> <> <> <> <>
$$ <> <> <> <> <> <> <> <> <> <> <> <> <> <> <> <> <> <> <> <> <> <> <> <>
$$ <> <> <> <> <> <> <> <> <> <> <> <> <> <> <> <> <> <> <> <> <> <> <> <>
$$ <> <> <> <> <> <> <> <> <> <> <> <> <> <> <> <> <> <> <> <> <> <> <> <>
$$ <> <> <> <> <> <> <> <> <> <> <> <> <> <> <> <> <> <> <> <> <> <> <> <>
$$ <> <> <> <> <> <> <> <>
$$ ##$PramPPowNucW2= (0..127)
$$ <> <> <> <> <> <> <> <> <> <> <> <> <> <> <> <> <> <> <> <> <> <> <> <>
$$ <> <> <> <> <> <> <> <> <> <> <> <> <> <> <> <> <> <> <> <> <> <> <> <>
$$ <> <> <> <> <> <> <> <> <> <> <> <> <> <> <> <> <> <> <> <> <> <> <> <>
$$ <> <> <> <> <> <> <> <> <> <> <> <> <> <> <> <> <> <> <> <> <> <> <> <>
$$ <> <> <> <> <> <> <> <> <> <> <> <> <> <> <> <> <> <> <> <> <> <> <> <>
$$ <> <> <> <> <> <> <> <>
$$ ##$PramPPowNucW20= (0..127)
$$ <> <> <> <> <> <> <> <> <> <> <> <> <> <> <> <> <> <> <> <> <> <> <> <>
$$ <> <> <> <> <> <> <> <> <> <> <> <> <> <> <> <> <> <> <> <> <> <> <> <>
$$ <> <> <> <> <> <> <> <> <> <> <> <> <> <> <> <> <> <> <> <> <> <> <> <>
$$ <> <> <> <> <> <> <> <> <> <> <> <> <> <> <> <> <> <> <> <> <> <> <> <>
$$ <> <> <> <> <> <> <> <> <> <> <> <> <> <> <> <> <> <> <> <> <> <> <> <>
$$ <> <> <> <> <> <> <> <>
$$ ##$PramPPowNucW21= (0..127)
$$ <> <> <> <> <> <> <> <> <> <> <> <> <> <> <> <> <> <> <> <> <> <> <> <>
$$ <> <> <> <> <> <> <> <> <> <> <> <> <> <> <> <> <> <> <> <> <> <> <> <>
$$ <> <> <> <> <> <> <> <> <> <> <> <> <> <> <> <> <> <> <> <> <> <> <> <>
$$ <> <> <> <> <> <> <> <> <> <> <> <> <> <> <> <> <> <> <> <> <> <> <> <>
$$ <> <> <> <> <> <> <> <> <> <> <> <> <> <> <> <> <> <> <> <> <> <> <> <>
$$ <> <> <> <> <> <> <> <>
$$ ##$PramPPowNucW22= (0..127)
$$ <> <> <> <> <> <> <> <> <> <> <> <> <> <> <> <> <> <> <> <> <> <> <> <>
$$ <> <> <> <> <> <> <> <> <> <> <> <> <> <> <> <> <> <> <> <> <> <> <> <>
$$ <> <> <> <> <> <> <> <> <> <> <> <> <> <> <> <> <> <> <> <> <> <> <> <>
$$ <> <> <> <> <> <> <> <> <> <> <> <> <> <> <> <> <> <> <> <> <> <> <> <>
$$ <> <> <> <> <> <> <> <> <> <> <> <> <> <> <> <> <> <> <> <> <> <> <> <>
$$ <> <> <> <> <> <> <> <>
$$ ##$PramPPowNucW23= (0..127)
$$ <> <> <> <> <> <> <> <> <> <> <> <> <> <> <> <> <> <> <> <> <> <> <> <>
$$ <> <> <> <> <> <> <> <> <> <> <> <> <> <> <> <> <> <> <> <> <> <> <> <>
$$ <> <> <> <> <> <> <> <> <> <> <> <> <> <> <> <> <> <> <> <> <> <> <> <>
$$ <> <> <> <> <> <> <> <> <> <> <> <> <> <> <> <> <> <> <> <> <> <> <> <>
$$ <> <> <> <> <> <> <> <> <> <> <> <> <> <> <> <> <> <> <> <> <> <> <> <>
$$ <> <> <> <> <> <> <> <>
$$ ##$PramPPowNucW24= (0..127)
$$ <> <> <> <> <> <> <> <> <> <> <> <> <> <> <> <> <> <> <> <> <> <> <> <>
$$ <> <> <> <> <> <> <> <> <> <> <> <> <> <> <> <> <> <> <> <> <> <> <> <>
$$ <> <> <> <> <> <> <> <> <> <> <> <> <> <> <> <> <> <> <> <> <> <> <> <>
$$ <> <> <> <> <> <> <> <> <> <> <> <> <> <> <> <> <> <> <> <> <> <> <> <>
$$ <> <> <> <> <> <> <> <> <> <> <> <> <> <> <> <> <> <> <> <> <> <> <> <>
$$ <> <> <> <> <> <> <> <>
$$ ##$PramPPowNucW25= (0..127)
$$ <> <> <> <> <> <> <> <> <> <> <> <> <> <> <> <> <> <> <> <> <> <> <> <>
$$ <> <> <> <> <> <> <> <> <> <> <> <> <> <> <> <> <> <> <> <> <> <> <> <>
$$ <> <> <> <> <> <> <> <> <> <> <> <> <> <> <> <> <> <> <> <> <> <> <> <>
$$ <> <> <> <> <> <> <> <> <> <> <> <> <> <> <> <> <> <> <> <> <> <> <> <>
$$ <> <> <> <> <> <> <> <> <> <> <> <> <> <> <> <> <> <> <> <> <> <> <> <>
$$ <> <> <> <> <> <> <> <>
$$ ##$PramPPowNucW26= (0..127)
$$ <> <> <> <> <> <> <> <> <> <> <> <> <> <> <> <> <> <> <> <> <> <> <> <>
$$ <> <> <> <> <> <> <> <> <> <> <> <> <> <> <> <> <> <> <> <> <> <> <> <>
$$ <> <> <> <> <> <> <> <> <> <> <> <> <> <> <> <> <> <> <> <> <> <> <> <>
$$ <> <> <> <> <> <> <> <> <> <> <> <> <> <> <> <> <> <> <> <> <> <> <> <>
$$ <> <> <> <> <> <> <> <> <> <> <> <> <> <> <> <> <> <> <> <> <> <> <> <>
$$ <> <> <> <> <> <> <> <>
$$ ##$PramPPowNucW27= (0..127)
$$ <> <> <> <> <> <> <> <> <> <> <> <> <> <> <> <> <> <> <> <> <> <> <> <>
$$ <> <> <> <> <> <> <> <> <> <> <> <> <> <> <> <> <> <> <> <> <> <> <> <>
$$ <> <> <> <> <> <> <> <> <> <> <> <> <> <> <> <> <> <> <> <> <> <> <> <>
$$ <> <> <> <> <> <> <> <> <> <> <> <> <> <> <> <> <> <> <> <> <> <> <> <>
$$ <> <> <> <> <> <> <> <> <> <> <> <> <> <> <> <> <> <> <> <> <> <> <> <>
$$ <> <> <> <> <> <> <> <>
$$ ##$PramPPowNucW28= (0..127)
$$ <> <> <> <> <> <> <> <> <> <> <> <> <> <> <> <> <> <> <> <> <> <> <> <>
$$ <> <> <> <> <> <> <> <> <> <> <> <> <> <> <> <> <> <> <> <> <> <> <> <>
$$ <> <> <> <> <> <> <> <> <> <> <> <> <> <> <> <> <> <> <> <> <> <> <> <>
$$ <> <> <> <> <> <> <> <> <> <> <> <> <> <> <> <> <> <> <> <> <> <> <> <>
$$ <> <> <> <> <> <> <> <> <> <> <> <> <> <> <> <> <> <> <> <> <> <> <> <>
$$ <> <> <> <> <> <> <> <>
$$ ##$PramPPowNucW29= (0..127)
$$ <> <> <> <> <> <> <> <> <> <> <> <> <> <> <> <> <> <> <> <> <> <> <> <>
$$ <> <> <> <> <> <> <> <> <> <> <> <> <> <> <> <> <> <> <> <> <> <> <> <>
$$ <> <> <> <> <> <> <> <> <> <> <> <> <> <> <> <> <> <> <> <> <> <> <> <>
$$ <> <> <> <> <> <> <> <> <> <> <> <> <> <> <> <> <> <> <> <> <> <> <> <>
$$ <> <> <> <> <> <> <> <> <> <> <> <> <> <> <> <> <> <> <> <> <> <> <> <>
$$ <> <> <> <> <> <> <> <>
$$ ##$PramPPowNucW3= (0..127)
$$ <> <> <> <> <> <> <> <> <> <> <> <> <> <> <> <> <> <> <> <> <> <> <> <>
$$ <> <> <> <> <> <> <> <> <> <> <> <> <> <> <> <> <> <> <> <> <> <> <> <>
$$ <> <> <> <> <> <> <> <> <> <> <> <> <> <> <> <> <> <> <> <> <> <> <> <>
$$ <> <> <> <> <> <> <> <> <> <> <> <> <> <> <> <> <> <> <> <> <> <> <> <>
$$ <> <> <> <> <> <> <> <> <> <> <> <> <> <> <> <> <> <> <> <> <> <> <> <>
$$ <> <> <> <> <> <> <> <>
$$ ##$PramPPowNucW30= (0..127)
$$ <> <> <> <> <> <> <> <> <> <> <> <> <> <> <> <> <> <> <> <> <> <> <> <>
$$ <> <> <> <> <> <> <> <> <> <> <> <> <> <> <> <> <> <> <> <> <> <> <> <>
$$ <> <> <> <> <> <> <> <> <> <> <> <> <> <> <> <> <> <> <> <> <> <> <> <>
$$ <> <> <> <> <> <> <> <> <> <> <> <> <> <> <> <> <> <> <> <> <> <> <> <>
$$ <> <> <> <> <> <> <> <> <> <> <> <> <> <> <> <> <> <> <> <> <> <> <> <>
$$ <> <> <> <> <> <> <> <>
$$ ##$PramPPowNucW31= (0..127)
$$ <> <> <> <> <> <> <> <> <> <> <> <> <> <> <> <> <> <> <> <> <> <> <> <>
$$ <> <> <> <> <> <> <> <> <> <> <> <> <> <> <> <> <> <> <> <> <> <> <> <>
$$ <> <> <> <> <> <> <> <> <> <> <> <> <> <> <> <> <> <> <> <> <> <> <> <>
$$ <> <> <> <> <> <> <> <> <> <> <> <> <> <> <> <> <> <> <> <> <> <> <> <>
$$ <> <> <> <> <> <> <> <> <> <> <> <> <> <> <> <> <> <> <> <> <> <> <> <>
$$ <> <> <> <> <> <> <> <>
$$ ##$PramPPowNucW32= (0..127)
$$ <> <> <> <> <> <> <> <> <> <> <> <> <> <> <> <> <> <> <> <> <> <> <> <>
$$ <> <> <> <> <> <> <> <> <> <> <> <> <> <> <> <> <> <> <> <> <> <> <> <>
$$ <> <> <> <> <> <> <> <> <> <> <> <> <> <> <> <> <> <> <> <> <> <> <> <>
$$ <> <> <> <> <> <> <> <> <> <> <> <> <> <> <> <> <> <> <> <> <> <> <> <>
$$ <> <> <> <> <> <> <> <> <> <> <> <> <> <> <> <> <> <> <> <> <> <> <> <>
$$ <> <> <> <> <> <> <> <>
$$ ##$PramPPowNucW4= (0..127)
$$ <> <> <> <> <> <> <> <> <> <> <> <> <> <> <> <> <> <> <> <> <> <> <> <>
$$ <> <> <> <> <> <> <> <> <> <> <> <> <> <> <> <> <> <> <> <> <> <> <> <>
$$ <> <> <> <> <> <> <> <> <> <> <> <> <> <> <> <> <> <> <> <> <> <> <> <>
$$ <> <> <> <> <> <> <> <> <> <> <> <> <> <> <> <> <> <> <> <> <> <> <> <>
$$ <> <> <> <> <> <> <> <> <> <> <> <> <> <> <> <> <> <> <> <> <> <> <> <>
$$ <> <> <> <> <> <> <> <>
$$ ##$PramPPowNucW5= (0..127)
$$ <> <> <> <> <> <> <> <> <> <> <> <> <> <> <> <> <> <> <> <> <> <> <> <>
$$ <> <> <> <> <> <> <> <> <> <> <> <> <> <> <> <> <> <> <> <> <> <> <> <>
$$ <> <> <> <> <> <> <> <> <> <> <> <> <> <> <> <> <> <> <> <> <> <> <> <>
$$ <> <> <> <> <> <> <> <> <> <> <> <> <> <> <> <> <> <> <> <> <> <> <> <>
$$ <> <> <> <> <> <> <> <> <> <> <> <> <> <> <> <> <> <> <> <> <> <> <> <>
$$ <> <> <> <> <> <> <> <>
$$ ##$PramPPowNucW6= (0..127)
$$ <> <> <> <> <> <> <> <> <> <> <> <> <> <> <> <> <> <> <> <> <> <> <> <>
$$ <> <> <> <> <> <> <> <> <> <> <> <> <> <> <> <> <> <> <> <> <> <> <> <>
$$ <> <> <> <> <> <> <> <> <> <> <> <> <> <> <> <> <> <> <> <> <> <> <> <>
$$ <> <> <> <> <> <> <> <> <> <> <> <> <> <> <> <> <> <> <> <> <> <> <> <>
$$ <> <> <> <> <> <> <> <> <> <> <> <> <> <> <> <> <> <> <> <> <> <> <> <>
$$ <> <> <> <> <> <> <> <>
$$ ##$PramPPowNucW7= (0..127)
$$ <> <> <> <> <> <> <> <> <> <> <> <> <> <> <> <> <> <> <> <> <> <> <> <>
$$ <> <> <> <> <> <> <> <> <> <> <> <> <> <> <> <> <> <> <> <> <> <> <> <>
$$ <> <> <> <> <> <> <> <> <> <> <> <> <> <> <> <> <> <> <> <> <> <> <> <>
$$ <> <> <> <> <> <> <> <> <> <> <> <> <> <> <> <> <> <> <> <> <> <> <> <>
$$ <> <> <> <> <> <> <> <> <> <> <> <> <> <> <> <> <> <> <> <> <> <> <> <>
$$ <> <> <> <> <> <> <> <>
$$ ##$PramPPowNucW8= (0..127)
$$ <> <> <> <> <> <> <> <> <> <> <> <> <> <> <> <> <> <> <> <> <> <> <> <>
$$ <> <> <> <> <> <> <> <> <> <> <> <> <> <> <> <> <> <> <> <> <> <> <> <>
$$ <> <> <> <> <> <> <> <> <> <> <> <> <> <> <> <> <> <> <> <> <> <> <> <>
$$ <> <> <> <> <> <> <> <> <> <> <> <> <> <> <> <> <> <> <> <> <> <> <> <>
$$ <> <> <> <> <> <> <> <> <> <> <> <> <> <> <> <> <> <> <> <> <> <> <> <>
$$ <> <> <> <> <> <> <> <>
$$ ##$PramPPowNucW9= (0..127)
$$ <> <> <> <> <> <> <> <> <> <> <> <> <> <> <> <> <> <> <> <> <> <> <> <>
$$ <> <> <> <> <> <> <> <> <> <> <> <> <> <> <> <> <> <> <> <> <> <> <> <>
$$ <> <> <> <> <> <> <> <> <> <> <> <> <> <> <> <> <> <> <> <> <> <> <> <>
$$ <> <> <> <> <> <> <> <> <> <> <> <> <> <> <> <> <> <> <> <> <> <> <> <>
$$ <> <> <> <> <> <> <> <> <> <> <> <> <> <> <> <> <> <> <> <> <> <> <> <>
$$ <> <> <> <> <> <> <> <>
$$ ##$PramPeakPowerW= (0..31)
$$ 4000 500 500 0 0 0 0 0 0 0 0 0 0 0 0 0 0 0 0 0 0 0 0 0 0 0 0 0 0 0 0 0
$$ ##$PramPowerSwitch= (0..31)
$$ 0 0 0 0 0 0 0 0 0 0 0 0 0 0 0 0 0 0 0 0 0 0 0 0 0 0 0 0 0 0 0 0
$$ ##$PramPulWidthMs= (0..31)
$$ 10 0.1 0.1 0 0 0 0 0 0 0 0 0 0 0 0 0 0 0 0 0 0 0 0 0 0 0 0 0 0 0 0 0
$$ ##$PreampModBisDat= (0..31)
$$ 20170831 20170803 20171010 0 0 0 0 0 0 0 0 0 0 0 0 0 0 0 0 0 0 0 0 0 0
$$ 0 0 0 0 0 0 0
$$ ##$PreampModPN= (0..31)
$$ <Z103203> <Z003471> <Z106984> <> <> <> <> <> <> <> <> <> <> <> <> <> <>
$$ <> <> <> <> <> <> <> <> <> <> <> <> <> <> <>
$$ ##$PreampModSN= (0..31)
$$ <00751> <00354> <00310> <> <> <> <> <> <> <> <> <> <> <> <> <> <> <> <>
$$ <> <> <> <> <> <> <> <> <> <> <> <> <>
$$ ##$ProdigyEth= <no>
$$ ##$ProdigyFw= <no>
$$ ##$ProdigyPn= <no>
$$ ##$ProdigySn= <no>
$$ ##$RFSVTY= <no>
$$ ##$RGTYPE= (0..31)
$$ 9 9 0 0 0 0 0 0 0 0 0 0 0 0 0 0 0 0 0 0 0 0 0 0 0 0 0 0 0 0 0 0
$$ ##$RG_max= (0..31)
$$ 101 101 -1 -1 -1 -1 -1 -1 -1 -1 -1 -1 -1 -1 -1 -1 -1 -1 -1 -1 -1 -1 -1
$$ -1 -1 -1 -1 -1 -1 -1 -1 -1
$$ ##$RG_min= (0..31)
$$ 0.25 0.25 -1 -1 -1 -1 -1 -1 -1 -1 -1 -1 -1 -1 -1 -1 -1 -1 -1 -1 -1 -1 -1
$$ -1 -1 -1 -1 -1 -1 -1 -1 -1
$$ ##$RG_tab1= (0..127)
$$ 0.25 0.28 0.32 0.35 0.4 0.44 0.5 0.56 0.64 0.7 0.8 0.89 1 1.12 1.28 1.4
$$ 1.6 1.78 2 2.25 2.56 2.8 3.2 3.56 4 4.5 5 5.6 6.35 7.12 8 9 10 11.3 12.7
$$ 14.2 16 18 20.2 22.6 25.4 28.5 32 36 40.3 45.2 50.8 57 64 71.8 80.6 90.5
$$ 101 -1 -1 -1 -1 -1 -1 -1 -1 -1 -1 -1 -1 -1 -1 -1 -1 -1 -1 -1 -1 -1 -1 -1
$$ -1 -1 -1 -1 -1 -1 -1 -1 -1 -1 -1 -1 -1 -1 -1 -1 -1 -1 -1 -1 -1 -1 -1 -1
$$ -1 -1 -1 -1 -1 -1 -1 -1 -1 -1 -1 -1 -1 -1 -1 -1 -1 -1 -1 -1 -1 -1 -1 -1
$$ -1 -1 -1 -1
$$ ##$RG_tab10= (0..127)
$$ -1 -1 -1 -1 -1 -1 -1 -1 -1 -1 -1 -1 -1 -1 -1 -1 -1 -1 -1 -1 -1 -1 -1 -1
$$ -1 -1 -1 -1 -1 -1 -1 -1 -1 -1 -1 -1 -1 -1 -1 -1 -1 -1 -1 -1 -1 -1 -1 -1
$$ -1 -1 -1 -1 -1 -1 -1 -1 -1 -1 -1 -1 -1 -1 -1 -1 -1 -1 -1 -1 -1 -1 -1 -1
$$ -1 -1 -1 -1 -1 -1 -1 -1 -1 -1 -1 -1 -1 -1 -1 -1 -1 -1 -1 -1 -1 -1 -1 -1
$$ -1 -1 -1 -1 -1 -1 -1 -1 -1 -1 -1 -1 -1 -1 -1 -1 -1 -1 -1 -1 -1 -1 -1 -1
$$ -1 -1 -1 -1 -1 -1 -1 -1
$$ ##$RG_tab11= (0..127)
$$ -1 -1 -1 -1 -1 -1 -1 -1 -1 -1 -1 -1 -1 -1 -1 -1 -1 -1 -1 -1 -1 -1 -1 -1
$$ -1 -1 -1 -1 -1 -1 -1 -1 -1 -1 -1 -1 -1 -1 -1 -1 -1 -1 -1 -1 -1 -1 -1 -1
$$ -1 -1 -1 -1 -1 -1 -1 -1 -1 -1 -1 -1 -1 -1 -1 -1 -1 -1 -1 -1 -1 -1 -1 -1
$$ -1 -1 -1 -1 -1 -1 -1 -1 -1 -1 -1 -1 -1 -1 -1 -1 -1 -1 -1 -1 -1 -1 -1 -1
$$ -1 -1 -1 -1 -1 -1 -1 -1 -1 -1 -1 -1 -1 -1 -1 -1 -1 -1 -1 -1 -1 -1 -1 -1
$$ -1 -1 -1 -1 -1 -1 -1 -1
$$ ##$RG_tab12= (0..127)
$$ -1 -1 -1 -1 -1 -1 -1 -1 -1 -1 -1 -1 -1 -1 -1 -1 -1 -1 -1 -1 -1 -1 -1 -1
$$ -1 -1 -1 -1 -1 -1 -1 -1 -1 -1 -1 -1 -1 -1 -1 -1 -1 -1 -1 -1 -1 -1 -1 -1
$$ -1 -1 -1 -1 -1 -1 -1 -1 -1 -1 -1 -1 -1 -1 -1 -1 -1 -1 -1 -1 -1 -1 -1 -1
$$ -1 -1 -1 -1 -1 -1 -1 -1 -1 -1 -1 -1 -1 -1 -1 -1 -1 -1 -1 -1 -1 -1 -1 -1
$$ -1 -1 -1 -1 -1 -1 -1 -1 -1 -1 -1 -1 -1 -1 -1 -1 -1 -1 -1 -1 -1 -1 -1 -1
$$ -1 -1 -1 -1 -1 -1 -1 -1
$$ ##$RG_tab13= (0..127)
$$ -1 -1 -1 -1 -1 -1 -1 -1 -1 -1 -1 -1 -1 -1 -1 -1 -1 -1 -1 -1 -1 -1 -1 -1
$$ -1 -1 -1 -1 -1 -1 -1 -1 -1 -1 -1 -1 -1 -1 -1 -1 -1 -1 -1 -1 -1 -1 -1 -1
$$ -1 -1 -1 -1 -1 -1 -1 -1 -1 -1 -1 -1 -1 -1 -1 -1 -1 -1 -1 -1 -1 -1 -1 -1
$$ -1 -1 -1 -1 -1 -1 -1 -1 -1 -1 -1 -1 -1 -1 -1 -1 -1 -1 -1 -1 -1 -1 -1 -1
$$ -1 -1 -1 -1 -1 -1 -1 -1 -1 -1 -1 -1 -1 -1 -1 -1 -1 -1 -1 -1 -1 -1 -1 -1
$$ -1 -1 -1 -1 -1 -1 -1 -1
$$ ##$RG_tab14= (0..127)
$$ -1 -1 -1 -1 -1 -1 -1 -1 -1 -1 -1 -1 -1 -1 -1 -1 -1 -1 -1 -1 -1 -1 -1 -1
$$ -1 -1 -1 -1 -1 -1 -1 -1 -1 -1 -1 -1 -1 -1 -1 -1 -1 -1 -1 -1 -1 -1 -1 -1
$$ -1 -1 -1 -1 -1 -1 -1 -1 -1 -1 -1 -1 -1 -1 -1 -1 -1 -1 -1 -1 -1 -1 -1 -1
$$ -1 -1 -1 -1 -1 -1 -1 -1 -1 -1 -1 -1 -1 -1 -1 -1 -1 -1 -1 -1 -1 -1 -1 -1
$$ -1 -1 -1 -1 -1 -1 -1 -1 -1 -1 -1 -1 -1 -1 -1 -1 -1 -1 -1 -1 -1 -1 -1 -1
$$ -1 -1 -1 -1 -1 -1 -1 -1
$$ ##$RG_tab15= (0..127)
$$ -1 -1 -1 -1 -1 -1 -1 -1 -1 -1 -1 -1 -1 -1 -1 -1 -1 -1 -1 -1 -1 -1 -1 -1
$$ -1 -1 -1 -1 -1 -1 -1 -1 -1 -1 -1 -1 -1 -1 -1 -1 -1 -1 -1 -1 -1 -1 -1 -1
$$ -1 -1 -1 -1 -1 -1 -1 -1 -1 -1 -1 -1 -1 -1 -1 -1 -1 -1 -1 -1 -1 -1 -1 -1
$$ -1 -1 -1 -1 -1 -1 -1 -1 -1 -1 -1 -1 -1 -1 -1 -1 -1 -1 -1 -1 -1 -1 -1 -1
$$ -1 -1 -1 -1 -1 -1 -1 -1 -1 -1 -1 -1 -1 -1 -1 -1 -1 -1 -1 -1 -1 -1 -1 -1
$$ -1 -1 -1 -1 -1 -1 -1 -1
$$ ##$RG_tab16= (0..127)
$$ -1 -1 -1 -1 -1 -1 -1 -1 -1 -1 -1 -1 -1 -1 -1 -1 -1 -1 -1 -1 -1 -1 -1 -1
$$ -1 -1 -1 -1 -1 -1 -1 -1 -1 -1 -1 -1 -1 -1 -1 -1 -1 -1 -1 -1 -1 -1 -1 -1
$$ -1 -1 -1 -1 -1 -1 -1 -1 -1 -1 -1 -1 -1 -1 -1 -1 -1 -1 -1 -1 -1 -1 -1 -1
$$ -1 -1 -1 -1 -1 -1 -1 -1 -1 -1 -1 -1 -1 -1 -1 -1 -1 -1 -1 -1 -1 -1 -1 -1
$$ -1 -1 -1 -1 -1 -1 -1 -1 -1 -1 -1 -1 -1 -1 -1 -1 -1 -1 -1 -1 -1 -1 -1 -1
$$ -1 -1 -1 -1 -1 -1 -1 -1
$$ ##$RG_tab17= (0..127)
$$ -1 -1 -1 -1 -1 -1 -1 -1 -1 -1 -1 -1 -1 -1 -1 -1 -1 -1 -1 -1 -1 -1 -1 -1
$$ -1 -1 -1 -1 -1 -1 -1 -1 -1 -1 -1 -1 -1 -1 -1 -1 -1 -1 -1 -1 -1 -1 -1 -1
$$ -1 -1 -1 -1 -1 -1 -1 -1 -1 -1 -1 -1 -1 -1 -1 -1 -1 -1 -1 -1 -1 -1 -1 -1
$$ -1 -1 -1 -1 -1 -1 -1 -1 -1 -1 -1 -1 -1 -1 -1 -1 -1 -1 -1 -1 -1 -1 -1 -1
$$ -1 -1 -1 -1 -1 -1 -1 -1 -1 -1 -1 -1 -1 -1 -1 -1 -1 -1 -1 -1 -1 -1 -1 -1
$$ -1 -1 -1 -1 -1 -1 -1 -1
$$ ##$RG_tab18= (0..127)
$$ -1 -1 -1 -1 -1 -1 -1 -1 -1 -1 -1 -1 -1 -1 -1 -1 -1 -1 -1 -1 -1 -1 -1 -1
$$ -1 -1 -1 -1 -1 -1 -1 -1 -1 -1 -1 -1 -1 -1 -1 -1 -1 -1 -1 -1 -1 -1 -1 -1
$$ -1 -1 -1 -1 -1 -1 -1 -1 -1 -1 -1 -1 -1 -1 -1 -1 -1 -1 -1 -1 -1 -1 -1 -1
$$ -1 -1 -1 -1 -1 -1 -1 -1 -1 -1 -1 -1 -1 -1 -1 -1 -1 -1 -1 -1 -1 -1 -1 -1
$$ -1 -1 -1 -1 -1 -1 -1 -1 -1 -1 -1 -1 -1 -1 -1 -1 -1 -1 -1 -1 -1 -1 -1 -1
$$ -1 -1 -1 -1 -1 -1 -1 -1
$$ ##$RG_tab19= (0..127)
$$ -1 -1 -1 -1 -1 -1 -1 -1 -1 -1 -1 -1 -1 -1 -1 -1 -1 -1 -1 -1 -1 -1 -1 -1
$$ -1 -1 -1 -1 -1 -1 -1 -1 -1 -1 -1 -1 -1 -1 -1 -1 -1 -1 -1 -1 -1 -1 -1 -1
$$ -1 -1 -1 -1 -1 -1 -1 -1 -1 -1 -1 -1 -1 -1 -1 -1 -1 -1 -1 -1 -1 -1 -1 -1
$$ -1 -1 -1 -1 -1 -1 -1 -1 -1 -1 -1 -1 -1 -1 -1 -1 -1 -1 -1 -1 -1 -1 -1 -1
$$ -1 -1 -1 -1 -1 -1 -1 -1 -1 -1 -1 -1 -1 -1 -1 -1 -1 -1 -1 -1 -1 -1 -1 -1
$$ -1 -1 -1 -1 -1 -1 -1 -1
$$ ##$RG_tab2= (0..127)
$$ 0.25 0.28 0.32 0.35 0.4 0.44 0.5 0.56 0.64 0.7 0.8 0.89 1 1.12 1.28 1.4
$$ 1.6 1.78 2 2.25 2.56 2.8 3.2 3.56 4 4.5 5 5.6 6.35 7.12 8 9 10 11.3 12.7
$$ 14.2 16 18 20.2 22.6 25.4 28.5 32 36 40.3 45.2 50.8 57 64 71.8 80.6 90.5
$$ 101 -1 -1 -1 -1 -1 -1 -1 -1 -1 -1 -1 -1 -1 -1 -1 -1 -1 -1 -1 -1 -1 -1 -1
$$ -1 -1 -1 -1 -1 -1 -1 -1 -1 -1 -1 -1 -1 -1 -1 -1 -1 -1 -1 -1 -1 -1 -1 -1
$$ -1 -1 -1 -1 -1 -1 -1 -1 -1 -1 -1 -1 -1 -1 -1 -1 -1 -1 -1 -1 -1 -1 -1 -1
$$ -1 -1 -1 -1
$$ ##$RG_tab20= (0..127)
$$ -1 -1 -1 -1 -1 -1 -1 -1 -1 -1 -1 -1 -1 -1 -1 -1 -1 -1 -1 -1 -1 -1 -1 -1
$$ -1 -1 -1 -1 -1 -1 -1 -1 -1 -1 -1 -1 -1 -1 -1 -1 -1 -1 -1 -1 -1 -1 -1 -1
$$ -1 -1 -1 -1 -1 -1 -1 -1 -1 -1 -1 -1 -1 -1 -1 -1 -1 -1 -1 -1 -1 -1 -1 -1
$$ -1 -1 -1 -1 -1 -1 -1 -1 -1 -1 -1 -1 -1 -1 -1 -1 -1 -1 -1 -1 -1 -1 -1 -1
$$ -1 -1 -1 -1 -1 -1 -1 -1 -1 -1 -1 -1 -1 -1 -1 -1 -1 -1 -1 -1 -1 -1 -1 -1
$$ -1 -1 -1 -1 -1 -1 -1 -1
$$ ##$RG_tab21= (0..127)
$$ -1 -1 -1 -1 -1 -1 -1 -1 -1 -1 -1 -1 -1 -1 -1 -1 -1 -1 -1 -1 -1 -1 -1 -1
$$ -1 -1 -1 -1 -1 -1 -1 -1 -1 -1 -1 -1 -1 -1 -1 -1 -1 -1 -1 -1 -1 -1 -1 -1
$$ -1 -1 -1 -1 -1 -1 -1 -1 -1 -1 -1 -1 -1 -1 -1 -1 -1 -1 -1 -1 -1 -1 -1 -1
$$ -1 -1 -1 -1 -1 -1 -1 -1 -1 -1 -1 -1 -1 -1 -1 -1 -1 -1 -1 -1 -1 -1 -1 -1
$$ -1 -1 -1 -1 -1 -1 -1 -1 -1 -1 -1 -1 -1 -1 -1 -1 -1 -1 -1 -1 -1 -1 -1 -1
$$ -1 -1 -1 -1 -1 -1 -1 -1
$$ ##$RG_tab22= (0..127)
$$ -1 -1 -1 -1 -1 -1 -1 -1 -1 -1 -1 -1 -1 -1 -1 -1 -1 -1 -1 -1 -1 -1 -1 -1
$$ -1 -1 -1 -1 -1 -1 -1 -1 -1 -1 -1 -1 -1 -1 -1 -1 -1 -1 -1 -1 -1 -1 -1 -1
$$ -1 -1 -1 -1 -1 -1 -1 -1 -1 -1 -1 -1 -1 -1 -1 -1 -1 -1 -1 -1 -1 -1 -1 -1
$$ -1 -1 -1 -1 -1 -1 -1 -1 -1 -1 -1 -1 -1 -1 -1 -1 -1 -1 -1 -1 -1 -1 -1 -1
$$ -1 -1 -1 -1 -1 -1 -1 -1 -1 -1 -1 -1 -1 -1 -1 -1 -1 -1 -1 -1 -1 -1 -1 -1
$$ -1 -1 -1 -1 -1 -1 -1 -1
$$ ##$RG_tab23= (0..127)
$$ -1 -1 -1 -1 -1 -1 -1 -1 -1 -1 -1 -1 -1 -1 -1 -1 -1 -1 -1 -1 -1 -1 -1 -1
$$ -1 -1 -1 -1 -1 -1 -1 -1 -1 -1 -1 -1 -1 -1 -1 -1 -1 -1 -1 -1 -1 -1 -1 -1
$$ -1 -1 -1 -1 -1 -1 -1 -1 -1 -1 -1 -1 -1 -1 -1 -1 -1 -1 -1 -1 -1 -1 -1 -1
$$ -1 -1 -1 -1 -1 -1 -1 -1 -1 -1 -1 -1 -1 -1 -1 -1 -1 -1 -1 -1 -1 -1 -1 -1
$$ -1 -1 -1 -1 -1 -1 -1 -1 -1 -1 -1 -1 -1 -1 -1 -1 -1 -1 -1 -1 -1 -1 -1 -1
$$ -1 -1 -1 -1 -1 -1 -1 -1
$$ ##$RG_tab24= (0..127)
$$ -1 -1 -1 -1 -1 -1 -1 -1 -1 -1 -1 -1 -1 -1 -1 -1 -1 -1 -1 -1 -1 -1 -1 -1
$$ -1 -1 -1 -1 -1 -1 -1 -1 -1 -1 -1 -1 -1 -1 -1 -1 -1 -1 -1 -1 -1 -1 -1 -1
$$ -1 -1 -1 -1 -1 -1 -1 -1 -1 -1 -1 -1 -1 -1 -1 -1 -1 -1 -1 -1 -1 -1 -1 -1
$$ -1 -1 -1 -1 -1 -1 -1 -1 -1 -1 -1 -1 -1 -1 -1 -1 -1 -1 -1 -1 -1 -1 -1 -1
$$ -1 -1 -1 -1 -1 -1 -1 -1 -1 -1 -1 -1 -1 -1 -1 -1 -1 -1 -1 -1 -1 -1 -1 -1
$$ -1 -1 -1 -1 -1 -1 -1 -1
$$ ##$RG_tab3= (0..127)
$$ -1 -1 -1 -1 -1 -1 -1 -1 -1 -1 -1 -1 -1 -1 -1 -1 -1 -1 -1 -1 -1 -1 -1 -1
$$ -1 -1 -1 -1 -1 -1 -1 -1 -1 -1 -1 -1 -1 -1 -1 -1 -1 -1 -1 -1 -1 -1 -1 -1
$$ -1 -1 -1 -1 -1 -1 -1 -1 -1 -1 -1 -1 -1 -1 -1 -1 -1 -1 -1 -1 -1 -1 -1 -1
$$ -1 -1 -1 -1 -1 -1 -1 -1 -1 -1 -1 -1 -1 -1 -1 -1 -1 -1 -1 -1 -1 -1 -1 -1
$$ -1 -1 -1 -1 -1 -1 -1 -1 -1 -1 -1 -1 -1 -1 -1 -1 -1 -1 -1 -1 -1 -1 -1 -1
$$ -1 -1 -1 -1 -1 -1 -1 -1
$$ ##$RG_tab4= (0..127)
$$ -1 -1 -1 -1 -1 -1 -1 -1 -1 -1 -1 -1 -1 -1 -1 -1 -1 -1 -1 -1 -1 -1 -1 -1
$$ -1 -1 -1 -1 -1 -1 -1 -1 -1 -1 -1 -1 -1 -1 -1 -1 -1 -1 -1 -1 -1 -1 -1 -1
$$ -1 -1 -1 -1 -1 -1 -1 -1 -1 -1 -1 -1 -1 -1 -1 -1 -1 -1 -1 -1 -1 -1 -1 -1
$$ -1 -1 -1 -1 -1 -1 -1 -1 -1 -1 -1 -1 -1 -1 -1 -1 -1 -1 -1 -1 -1 -1 -1 -1
$$ -1 -1 -1 -1 -1 -1 -1 -1 -1 -1 -1 -1 -1 -1 -1 -1 -1 -1 -1 -1 -1 -1 -1 -1
$$ -1 -1 -1 -1 -1 -1 -1 -1
$$ ##$RG_tab5= (0..127)
$$ -1 -1 -1 -1 -1 -1 -1 -1 -1 -1 -1 -1 -1 -1 -1 -1 -1 -1 -1 -1 -1 -1 -1 -1
$$ -1 -1 -1 -1 -1 -1 -1 -1 -1 -1 -1 -1 -1 -1 -1 -1 -1 -1 -1 -1 -1 -1 -1 -1
$$ -1 -1 -1 -1 -1 -1 -1 -1 -1 -1 -1 -1 -1 -1 -1 -1 -1 -1 -1 -1 -1 -1 -1 -1
$$ -1 -1 -1 -1 -1 -1 -1 -1 -1 -1 -1 -1 -1 -1 -1 -1 -1 -1 -1 -1 -1 -1 -1 -1
$$ -1 -1 -1 -1 -1 -1 -1 -1 -1 -1 -1 -1 -1 -1 -1 -1 -1 -1 -1 -1 -1 -1 -1 -1
$$ -1 -1 -1 -1 -1 -1 -1 -1
$$ ##$RG_tab6= (0..127)
$$ -1 -1 -1 -1 -1 -1 -1 -1 -1 -1 -1 -1 -1 -1 -1 -1 -1 -1 -1 -1 -1 -1 -1 -1
$$ -1 -1 -1 -1 -1 -1 -1 -1 -1 -1 -1 -1 -1 -1 -1 -1 -1 -1 -1 -1 -1 -1 -1 -1
$$ -1 -1 -1 -1 -1 -1 -1 -1 -1 -1 -1 -1 -1 -1 -1 -1 -1 -1 -1 -1 -1 -1 -1 -1
$$ -1 -1 -1 -1 -1 -1 -1 -1 -1 -1 -1 -1 -1 -1 -1 -1 -1 -1 -1 -1 -1 -1 -1 -1
$$ -1 -1 -1 -1 -1 -1 -1 -1 -1 -1 -1 -1 -1 -1 -1 -1 -1 -1 -1 -1 -1 -1 -1 -1
$$ -1 -1 -1 -1 -1 -1 -1 -1
$$ ##$RG_tab7= (0..127)
$$ -1 -1 -1 -1 -1 -1 -1 -1 -1 -1 -1 -1 -1 -1 -1 -1 -1 -1 -1 -1 -1 -1 -1 -1
$$ -1 -1 -1 -1 -1 -1 -1 -1 -1 -1 -1 -1 -1 -1 -1 -1 -1 -1 -1 -1 -1 -1 -1 -1
$$ -1 -1 -1 -1 -1 -1 -1 -1 -1 -1 -1 -1 -1 -1 -1 -1 -1 -1 -1 -1 -1 -1 -1 -1
$$ -1 -1 -1 -1 -1 -1 -1 -1 -1 -1 -1 -1 -1 -1 -1 -1 -1 -1 -1 -1 -1 -1 -1 -1
$$ -1 -1 -1 -1 -1 -1 -1 -1 -1 -1 -1 -1 -1 -1 -1 -1 -1 -1 -1 -1 -1 -1 -1 -1
$$ -1 -1 -1 -1 -1 -1 -1 -1
$$ ##$RG_tab8= (0..127)
$$ -1 -1 -1 -1 -1 -1 -1 -1 -1 -1 -1 -1 -1 -1 -1 -1 -1 -1 -1 -1 -1 -1 -1 -1
$$ -1 -1 -1 -1 -1 -1 -1 -1 -1 -1 -1 -1 -1 -1 -1 -1 -1 -1 -1 -1 -1 -1 -1 -1
$$ -1 -1 -1 -1 -1 -1 -1 -1 -1 -1 -1 -1 -1 -1 -1 -1 -1 -1 -1 -1 -1 -1 -1 -1
$$ -1 -1 -1 -1 -1 -1 -1 -1 -1 -1 -1 -1 -1 -1 -1 -1 -1 -1 -1 -1 -1 -1 -1 -1
$$ -1 -1 -1 -1 -1 -1 -1 -1 -1 -1 -1 -1 -1 -1 -1 -1 -1 -1 -1 -1 -1 -1 -1 -1
$$ -1 -1 -1 -1 -1 -1 -1 -1
$$ ##$RG_tab9= (0..127)
$$ -1 -1 -1 -1 -1 -1 -1 -1 -1 -1 -1 -1 -1 -1 -1 -1 -1 -1 -1 -1 -1 -1 -1 -1
$$ -1 -1 -1 -1 -1 -1 -1 -1 -1 -1 -1 -1 -1 -1 -1 -1 -1 -1 -1 -1 -1 -1 -1 -1
$$ -1 -1 -1 -1 -1 -1 -1 -1 -1 -1 -1 -1 -1 -1 -1 -1 -1 -1 -1 -1 -1 -1 -1 -1
$$ -1 -1 -1 -1 -1 -1 -1 -1 -1 -1 -1 -1 -1 -1 -1 -1 -1 -1 -1 -1 -1 -1 -1 -1
$$ -1 -1 -1 -1 -1 -1 -1 -1 -1 -1 -1 -1 -1 -1 -1 -1 -1 -1 -1 -1 -1 -1 -1 -1
$$ -1 -1 -1 -1 -1 -1 -1 -1
$$ ##$ROBOTTY= <no>
$$ ##$ROUT14= (0..7)
$$ 0 0 0 0 0 0 0 0
$$ ##$ROUTER= 0
$$ ##$RXFMAX= (0..23)
$$ 1290 1290 -1 -1 -1 -1 -1 -1 -1 -1 -1 -1 -1 -1 -1 -1 -1 -1 -1 -1 -1 -1 -1
$$ -1
$$ ##$RXFMIN= (0..23)
$$ 5 5 -1 -1 -1 -1 -1 -1 -1 -1 -1 -1 -1 -1 -1 -1 -1 -1 -1 -1 -1 -1 -1 -1
$$ ##$RheoNmrEth= <no>
$$ ##$SGUC1= (0..23)
$$ 18 17 0 0 0 0 0 0 0 0 0 0 0 0 0 0 0 0 0 0 0 0 0 0
$$ ##$SGUC2= (0..23)
$$ 33 0 0 0 0 0 0 0 0 0 0 0 0 0 0 0 0 0 0 0 0 0 0 0
$$ ##$SLCBCONF= <SHNV>
$$ ##$SPECTR= 13
$$ ##$SYNCTRIG= 0
$$ ##$SamChgEth= (0..3)
$$ <192.168.98.2> <no> <no> <no>
$$ ##$SamChgPort= (0..3)
$$ <80> <no> <no> <no>
$$ ##$SamChgProtocol= (0..3)
$$ <SOAP> <> <> <>
$$ ##$ServiceNo= <>
$$ ##$Sgu10PowerLevel= (0..7)
$$ 0 0 0 0 0 0 0 0
$$ ##$Sgu11PowerLevel= (0..7)
$$ 0 0 0 0 0 0 0 0
$$ ##$Sgu12PowerLevel= (0..7)
$$ 0 0 0 0 0 0 0 0
$$ ##$Sgu13PowerLevel= (0..7)
$$ 0 0 0 0 0 0 0 0
$$ ##$Sgu14PowerLevel= (0..7)
$$ 0 0 0 0 0 0 0 0
$$ ##$Sgu15PowerLevel= (0..7)
$$ 0 0 0 0 0 0 0 0
$$ ##$Sgu16PowerLevel= (0..7)
$$ 0 0 0 0 0 0 0 0
$$ ##$Sgu17PowerLevel= (0..7)
$$ 0 0 0 0 0 0 0 0
$$ ##$Sgu18PowerLevel= (0..7)
$$ 0 0 0 0 0 0 0 0
$$ ##$Sgu19PowerLevel= (0..7)
$$ 0 0 0 0 0 0 0 0
$$ ##$Sgu1PowerLevels= (0..7)
$$ 90 74 58 42 26 10 0 0
$$ ##$Sgu20PowerLevel= (0..7)
$$ 0 0 0 0 0 0 0 0
$$ ##$Sgu21PowerLevel= (0..7)
$$ 0 0 0 0 0 0 0 0
$$ ##$Sgu22PowerLevel= (0..7)
$$ 0 0 0 0 0 0 0 0
$$ ##$Sgu23PowerLevel= (0..7)
$$ 0 0 0 0 0 0 0 0
$$ ##$Sgu24PowerLevel= (0..7)
$$ 0 0 0 0 0 0 0 0
$$ ##$Sgu2PowerLevels= (0..7)
$$ 90 74 58 42 26 10 0 0
$$ ##$Sgu3PowerLevels= (0..7)
$$ 0 0 0 0 0 0 0 0
$$ ##$Sgu4PowerLevels= (0..7)
$$ 0 0 0 0 0 0 0 0
$$ ##$Sgu5PowerLevels= (0..7)
$$ 0 0 0 0 0 0 0 0
$$ ##$Sgu6PowerLevels= (0..7)
$$ 0 0 0 0 0 0 0 0
$$ ##$Sgu7PowerLevels= (0..7)
$$ 0 0 0 0 0 0 0 0
$$ ##$Sgu8PowerLevels= (0..7)
$$ 0 0 0 0 0 0 0 0
$$ ##$Sgu9PowerLevels= (0..7)
$$ 0 0 0 0 0 0 0 0
$$ ##$SguType= 4
$$ ##$ShimMaxVal= 247148
$$ ##$ShimPow1Ch2Sh= (0..38)
$$ 1 2 3 4 13 5 7 11 10 9 6 8 12 23 21 15 20 14 16 17 0 0 0 0 0 0 0 0 0 0
$$ 0 0 0 0 0 0 0 0 0
$$ ##$ShimPow1Imax= (0..38)
$$ 1 1 1 1 1 1 1 1 1 1 1 1 1 1 1 1 1 1 1 1 0 0 0 0 0 0 0 0 0 0 0 0 0 0 0 0
$$ 0 0 0
$$ ##$ShimPow1NChan= 20
$$ ##$ShimPow1TotIMax= 6
$$ ##$ShimPow1Vmax= (0..38)
$$ 20 20 20 20 20 20 20 20 20 20 20 20 20 20 20 20 20 20 20 20 0 0 0 0 0 0
$$ 0 0 0 0 0 0 0 0 0 0 0 0 0
$$ ##$ShimPow2Ch2Sh= (0..38)
$$ 0 0 0 0 0 0 0 0 0 0 0 0 0 0 0 0 0 0 0 0 0 0 0 0 0 0 0 0 0 0 0 0 0 0 0 0
$$ 0 0 0
$$ ##$ShimPow2Imax= (0..38)
$$ 0 0 0 0 0 0 0 0 0 0 0 0 0 0 0 0 0 0 0 0 0 0 0 0 0 0 0 0 0 0 0 0 0 0 0 0
$$ 0 0 0
$$ ##$ShimPow2NChan= 0
$$ ##$ShimPow2TotIMax= 0
$$ ##$ShimPow2Vmax= (0..38)
$$ 0 0 0 0 0 0 0 0 0 0 0 0 0 0 0 0 0 0 0 0 0 0 0 0 0 0 0 0 0 0 0 0 0 0 0 0
$$ 0 0 0
$$ ##$ShimPow3Ch2Sh= (0..38)
$$ 0 0 0 0 0 0 0 0 0 0 0 0 0 0 0 0 0 0 0 0 0 0 0 0 0 0 0 0 0 0 0 0 0 0 0 0
$$ 0 0 0
$$ ##$ShimPow3Imax= (0..38)
$$ 0 0 0 0 0 0 0 0 0 0 0 0 0 0 0 0 0 0 0 0 0 0 0 0 0 0 0 0 0 0 0 0 0 0 0 0
$$ 0 0 0
$$ ##$ShimPow3NChan= 0
$$ ##$ShimPow3TotIMax= 0
$$ ##$ShimPow3Vmax= (0..38)
$$ 0 0 0 0 0 0 0 0 0 0 0 0 0 0 0 0 0 0 0 0 0 0 0 0 0 0 0 0 0 0 0 0 0 0 0 0
$$ 0 0 0
$$ ##$ShimPow4Ch2Sh= (0..38)
$$ 0 0 0 0 0 0 0 0 0 0 0 0 0 0 0 0 0 0 0 0 0 0 0 0 0 0 0 0 0 0 0 0 0 0 0 0
$$ 0 0 0
$$ ##$ShimPow4Imax= (0..38)
$$ 0 0 0 0 0 0 0 0 0 0 0 0 0 0 0 0 0 0 0 0 0 0 0 0 0 0 0 0 0 0 0 0 0 0 0 0
$$ 0 0 0
$$ ##$ShimPow4NChan= 0
$$ ##$ShimPow4TotIMax= 0
$$ ##$ShimPow4Vmax= (0..38)
$$ 0 0 0 0 0 0 0 0 0 0 0 0 0 0 0 0 0 0 0 0 0 0 0 0 0 0 0 0 0 0 0 0 0 0 0 0
$$ 0 0 0
$$ ##$ShimPow5Ch2Sh= (0..38)
$$ 0 0 0 0 0 0 0 0 0 0 0 0 0 0 0 0 0 0 0 0 0 0 0 0 0 0 0 0 0 0 0 0 0 0 0 0
$$ 0 0 0
$$ ##$ShimPow5Imax= (0..38)
$$ 0 0 0 0 0 0 0 0 0 0 0 0 0 0 0 0 0 0 0 0 0 0 0 0 0 0 0 0 0 0 0 0 0 0 0 0
$$ 0 0 0
$$ ##$ShimPow5NChan= 0
$$ ##$ShimPow5TotIMax= 0
$$ ##$ShimPow5Vmax= (0..38)
$$ 0 0 0 0 0 0 0 0 0 0 0 0 0 0 0 0 0 0 0 0 0 0 0 0 0 0 0 0 0 0 0 0 0 0 0 0
$$ 0 0 0
$$ ##$ShimPow6Ch2Sh= (0..38)
$$ 0 0 0 0 0 0 0 0 0 0 0 0 0 0 0 0 0 0 0 0 0 0 0 0 0 0 0 0 0 0 0 0 0 0 0 0
$$ 0 0 0
$$ ##$ShimPow6Imax= (0..38)
$$ 0 0 0 0 0 0 0 0 0 0 0 0 0 0 0 0 0 0 0 0 0 0 0 0 0 0 0 0 0 0 0 0 0 0 0 0
$$ 0 0 0
$$ ##$ShimPow6NChan= 0
$$ ##$ShimPow6TotIMax= 0
$$ ##$ShimPow6Vmax= (0..38)
$$ 0 0 0 0 0 0 0 0 0 0 0 0 0 0 0 0 0 0 0 0 0 0 0 0 0 0 0 0 0 0 0 0 0 0 0 0
$$ 0 0 0
$$ ##$ShimPow7Ch2Sh= (0..38)
$$ 0 0 0 0 0 0 0 0 0 0 0 0 0 0 0 0 0 0 0 0 0 0 0 0 0 0 0 0 0 0 0 0 0 0 0 0
$$ 0 0 0
$$ ##$ShimPow7Imax= (0..38)
$$ 0 0 0 0 0 0 0 0 0 0 0 0 0 0 0 0 0 0 0 0 0 0 0 0 0 0 0 0 0 0 0 0 0 0 0 0
$$ 0 0 0
$$ ##$ShimPow7NChan= 0
$$ ##$ShimPow7TotIMax= 0
$$ ##$ShimPow7Vmax= (0..38)
$$ 0 0 0 0 0 0 0 0 0 0 0 0 0 0 0 0 0 0 0 0 0 0 0 0 0 0 0 0 0 0 0 0 0 0 0 0
$$ 0 0 0
$$ ##$ShimPow8Ch2Sh= (0..38)
$$ 0 0 0 0 0 0 0 0 0 0 0 0 0 0 0 0 0 0 0 0 0 0 0 0 0 0 0 0 0 0 0 0 0 0 0 0
$$ 0 0 0
$$ ##$ShimPow8Imax= (0..38)
$$ 0 0 0 0 0 0 0 0 0 0 0 0 0 0 0 0 0 0 0 0 0 0 0 0 0 0 0 0 0 0 0 0 0 0 0 0
$$ 0 0 0
$$ ##$ShimPow8NChan= 0
$$ ##$ShimPow8TotIMax= 0
$$ ##$ShimPow8Vmax= (0..38)
$$ 0 0 0 0 0 0 0 0 0 0 0 0 0 0 0 0 0 0 0 0 0 0 0 0 0 0 0 0 0 0 0 0 0 0 0 0
$$ 0 0 0
$$ ##$ShimPowMaxUA= (0..63)
$$ 130000 130000 130000 130000 130000 130000 130000 130000 130000 130000 130000
$$ 130000 130000 130000 130000 130000 130000 130000 130000 130000 0 0 0 0
$$ 0 0 0 0 0 0 0 0 0 0 0 0 0 0 0 0 0 0 0 0 0 0 0 0 0 0 0 0 0 0 0 0 0 0 0 0
$$ 0 0 0 0
$$ ##$ShimPowMaxUG= (0..63)
$$ 524287 524287 524287 524287 524287 524287 524287 524287 524287 524287 524287
$$ 524287 524287 524287 524287 524287 524287 524287 524287 524287 0 0 0 0
$$ 0 0 0 0 0 0 0 0 0 0 0 0 0 0 0 0 0 0 0 0 0 0 0 0 0 0 0 0 0 0 0 0 0 0 0 0
$$ 0 0 0 0
$$ ##$ShimPowNum= 1
$$ ##$ShimPowRcbType= 3
$$ ##$ShimPowRes= (0..63)
$$ 1e-20 1e-20 1e-20 1e-20 1e-20 1e-20 1e-20 1e-20 1e-20 1e-20 1e-20 1e-20
$$ 1e-20 1e-20 1e-20 1e-20 1e-20 1e-20 1e-20 1e-20 0 0 0 0 0 0 0 0 0 0 0 0
$$ 0 0 0 0 0 0 0 0 0 0 0 0 0 0 0 0 0 0 0 0 0 0 0 0 0 0 0 0 0 0 0 0
$$ ##$ShimPowRng0= (0..63)
$$ 1 1 1 1 1 1 1 1 1 1 1 1 1 1 1 1 1 1 1 1 0 0 0 0 0 0 0 0 0 0 0 0 0 0 0 0
$$ 0 0 0 0 0 0 0 0 0 0 0 0 0 0 0 0 0 0 0 0 0 0 0 0 0 0 0 0
$$ ##$ShimPowRng1= (0..63)
$$ 1 1 1 1 1 1 1 1 1 1 1 1 1 1 1 1 1 1 1 1 0 0 0 0 0 0 0 0 0 0 0 0 0 0 0 0
$$ 0 0 0 0 0 0 0 0 0 0 0 0 0 0 0 0 0 0 0 0 0 0 0 0 0 0 0 0
$$ ##$ShimPowRng2= (0..63)
$$ 1 1 1 1 1 1 1 1 1 1 1 1 1 1 1 1 1 1 1 1 0 0 0 0 0 0 0 0 0 0 0 0 0 0 0 0
$$ 0 0 0 0 0 0 0 0 0 0 0 0 0 0 0 0 0 0 0 0 0 0 0 0 0 0 0 0
$$ ##$ShimPowRng3= (0..63)
$$ 1 1 1 1 1 1 1 1 1 1 1 1 1 1 1 1 1 1 1 1 0 0 0 0 0 0 0 0 0 0 0 0 0 0 0 0
$$ 0 0 0 0 0 0 0 0 0 0 0 0 0 0 0 0 0 0 0 0 0 0 0 0 0 0 0 0
$$ ##$ShimPowType1= 8
$$ ##$ShimPowType2= 0
$$ ##$ShimPowType3= 0
$$ ##$ShimPowType4= 0
$$ ##$ShimPowType5= 0
$$ ##$ShimPowType6= 0
$$ ##$ShimPowType7= 0
$$ ##$ShimPowType8= 0
$$ ##$ShimSysActGrad= (0..63)
$$ 1 2 3 4 13 5 7 11 10 9 6 8 12 20 21 15 23 14 16 17 0 0 0 0 0 0 0 0 0 0
$$ 0 0 0 0 0 0 0 0 0 0 0 0 0 0 0 0 0 0 0 0 0 0 0 0 0 0 0 0 0 0 0 0 0 0
$$ ##$ShimSysAngle= <>
$$ ##$ShimSysFunc= (0..63)
$$ 1 2 3 4 5 7 9 11 15 16 8 10 12 14 6 17 13 18 19 20 0 0 0 0 0 0 0 0 0 0
$$ 0 0 0 0 0 0 0 0 0 0 0 0 0 0 0 0 0 0 0 0 0 0 0 0 0 0 0 0 0 0 0 0 0 0
$$ ##$ShimSysMatId= <BOSS1>
$$ ##$ShimSysMatrix= 1
$$ ##$ShimSysMinMaxUG= 247148
$$ ##$ShimSysOffset= <771 (SHIM UPPER PART!!!)>
$$ ##$ShimSysType= 1
$$ ##$ShimUnit= 3
$$ ##$SpectrOsVersion= <4.1.166.20220113>
$$ ##$TCubeEth= <192.168.180.38>
$$ ##$TCubeSeqDevice= <>
$$ ##$TOSITY= <no>
$$ ##$TRIPLO2= 0
$$ ##$TopSpinVersion= <TopSpin 4.1.4>
$$ ##$TrxFreqFormula= (0..23)
$$ <TrxFreqFormula(2.0,400130000.000000,'TRX',Trx(1.0,'TRX 1200.1',1,5.000000,1290.000000))>
$$ <TrxFreqFormula(2.0,400130000.000000,'TRX',Trx(1.0,'TRX 1200.2',1,5.000000,1290.000000))>
$$ <> <> <> <> <> <> <> <> <> <> <> <> <> <> <> <> <> <> <> <> <> <>
$$ ##$TrxPN= (0..23)
$$ <Z148391> <Z148391> <> <> <> <> <> <> <> <> <> <> <> <> <> <> <> <> <>
$$ <> <> <> <> <>
$$ ##$TrxSN= (0..23)
$$ <00763> <00728> <> <> <> <> <> <> <> <> <> <> <> <> <> <> <> <> <> <> <>
$$ <> <> <>
$$ ##$VCubeEth= (0..23)
$$ <no> <no> <no> <no> <no> <no> <no> <no> <no> <no> <no> <no> <no> <no> <no>
$$ <no> <no> <no> <no> <no> <no> <no> <no> <no>
$$ ##$VTU= 2
$$ ##$VTUETH= <192.168.99.11>
$$ ##$VTUTY= <no>
$$ ##$ValueLine= no
$$ ##$VpuPN= (0..23)
$$ <no> <no> <no> <no> <no> <no> <no> <no> <no> <no> <no> <no> <no> <no> <no>
$$ <no> <no> <no> <no> <no> <no> <no> <no> <no>
$$ ##$VpuSN= (0..23)
$$ <no> <no> <no> <no> <no> <no> <no> <no> <no> <no> <no> <no> <no> <no> <no>
$$ <no> <no> <no> <no> <no> <no> <no> <no> <no>
$$ ##$WBREFAM= (0..31)
$$ 100 100 100 100 100 100 100 100 100 100 100 100 100 100 100 100 100 100
$$ 100 100 100 100 100 100 100 100 100 100 100 100 100 100
$$ ##$WBREFLM= (0..31)
$$ 1 0 0 0 0 0 0 0 0 0 0 0 0 0 0 0 0 0 0 0 0 0 0 0 0 0 0 0 0 0 0 0
$$ ##$WBREFPH= (0..31)
$$ -0.07 0 0 0 0 0 0 0 0 0 0 0 0 0 0 0 0 0 0 0 0 0 0 0 0 0 0 0 0 0 0 0
$$ ##$WBSGU= (0..31)
$$ 1 1 2 0 0 0 0 0 0 0 0 0 0 0 0 0 0 0 0 0 0 0 0 0 0 0 0 0 0 0 0 0
$$ ##END=
##$RELAX= 
##$BRUKER FILE PROC=clevels
$$ ##TITLE= Parameter file, TopSpin 4.1.4
$$ ##JCAMPDX= 5.0
$$ ##DATATYPE= Parameter Values
$$ ##NPOINTS= 1	$$ modification sequence number
$$ ##ORIGIN= Bruker BioSpin GmbH
$$ ##OWNER= nmrsu
$$ $$ 2023-07-05 21:14:08.499 +0200  nmrsu@nmrf492r
$$ $$ /opt/data/apprentis.isic@epfl.ch/nmr/f324b9c82ac5_reference_142-82-5/1/pdata/1/clevels
$$ $$ process /opt/topspin4.1.4/prog/mod/xwish3
$$ ##$LEVELS= (0..255)
$$ 114.44 -114.44 131.45 -131.45 150.99 -150.99 173.43 -173.43 199.21 -199.21
$$ 228.83 -228.83 262.84 -262.84 301.91 -301.91 346.79 -346.79 398.35 -398.35
$$ 457.56 -457.56 525.58 -525.58 603.7 -603.7 693.44 -693.44 796.52 -796.52
$$ 914.92 -914.92 1050.93 -1050.93 1207.15 -1207.15 1386.59 -1386.59 1592.7
$$ -1592.7 0 0 0 0 0 0 0 0 0 0 0 0 0 0 0 0 0 0 0 0 0 0 0 0 0 0 0 0 0 0 0 0
$$ 0 0 0 0 0 0 0 0 0 0 0 0 0 0 0 0 0 0 0 0 0 0 0 0 0 0 0 0 0 0 0 0 0 0 0 0
$$ 0 0 0 0 0 0 0 0 0 0 0 0 0 0 0 0 0 0 0 0 0 0 0 0 0 0 0 0 0 0 0 0 0 0 0 0
$$ 0 0 0 0 0 0 0 0 0 0 0 0 0 0 0 0 0 0 0 0 0 0 0 0 0 0 0 0 0 0 0 0 0 0 0 0
$$ 0 0 0 0 0 0 0 0 0 0 0 0 0 0 0 0 0 0 0 0 0 0 0 0 0 0 0 0 0 0 0 0 0 0 0 0
$$ 0 0 0 0 0 0 0 0 0 0 0 0 0 0 0 0 0 0 0 0 0 0 0 0 0 0 0 0 0 0 0 0 0 0 0 0
$$ 0 0 0 0
$$ ##$LEVSIGN= 3
$$ ##$MAXLEV= 20
$$ ##$METHOD= 0
$$ ##$NEGBASE= -114.44
$$ ##$NEGINCR= 1.8
$$ ##$POSBASE= 114.44
$$ ##$POSINCR= 1.8
$$ ##END=
##$RELAX= 
##$BRUKER FILE PROC=intrng
$$ P 0
$$ 2.152334   -1.479199
##$RELAX= 
##$BRUKER FILE PROC=peaklist.xml
$$ <?xml version="1.0" encoding="UTF-8"?>
$$ <PeakList>
$$   <PeakList1D>
$$     <PeakList1DHeader creator="nmrsu" date="2023-07-05T22:06:29.428+02:00" expNo="1" name="f324b9c82ac5_reference_142-82-5" owner="" procNo="1" source="/opt/data/apprentis.isic@epfl.ch/nmr">
$$       <PeakPickDetails>F1=13.221680ppm, F2=-1.479423ppm, MI=0.00cm, MAXI=10000.00cm, PC=1.000
$$       </PeakPickDetails>
$$     </PeakList1DHeader>
$$     <Peak1D F1="13.213621" intensity="4.806033e-04" type="0"/>
$$     <Peak1D F1="7.412974" intensity="4.066766e-04" type="0"/>
$$     <Peak1D F1="7.155087" intensity="8.677234e-02" type="0"/>
$$     <Peak1D F1="6.891626" intensity="5.181038e-04" type="0"/>
$$     <Peak1D F1="2.035679" intensity="4.982224e-04" type="0"/>
$$     <Peak1D F1="1.914018" intensity="7.320974e-04" type="0"/>
$$     <Peak1D F1="1.877170" intensity="1.009559e-03" type="0"/>
$$     <Peak1D F1="1.860519" intensity="2.238286e-03" type="0"/>
$$     <Peak1D F1="1.843899" intensity="2.796620e-03" type="0"/>
$$     <Peak1D F1="1.836894" intensity="2.870229e-03" type="0"/>
$$     <Peak1D F1="1.820219" intensity="2.722937e-03" type="0"/>
$$     <Peak1D F1="1.803748" intensity="1.738644e-03" type="0"/>
$$     <Peak1D F1="1.743184" intensity="2.020336e-03" type="0"/>
$$     <Peak1D F1="1.727164" intensity="1.976957e-03" type="0"/>
$$     <Peak1D F1="1.679382" intensity="2.954479e-03" type="0"/>
$$     <Peak1D F1="1.661071" intensity="4.017639e-03" type="0"/>
$$     <Peak1D F1="1.615001" intensity="1.052875e-02" type="0"/>
$$     <Peak1D F1="1.604232" intensity="9.426991e-03" type="0"/>
$$     <Peak1D F1="1.579943" intensity="2.046744e-02" type="0"/>
$$     <Peak1D F1="1.556483" intensity="1.324262e-02" type="0"/>
$$     <Peak1D F1="1.550410" intensity="1.284613e-02" type="0"/>
$$     <Peak1D F1="1.511847" intensity="6.414571e-03" type="0"/>
$$     <Peak1D F1="1.494666" intensity="6.688950e-03" type="0"/>
$$     <Peak1D F1="1.443553" intensity="1.016595e-02" type="0"/>
$$     <Peak1D F1="1.431930" intensity="2.204018e-02" type="0"/>
$$     <Peak1D F1="1.424394" intensity="1.422431e-02" type="0"/>
$$     <Peak1D F1="1.406221" intensity="2.616494e-02" type="0"/>
$$     <Peak1D F1="1.387777" intensity="4.647741e-02" type="0"/>
$$     <Peak1D F1="1.379748" intensity="1.129806e-01" type="0"/>
$$     <Peak1D F1="1.371040" intensity="5.569882e-02" type="0"/>
$$     <Peak1D F1="1.362731" intensity="5.198162e-02" type="0"/>
$$     <Peak1D F1="1.353441" intensity="5.414468e-02" type="0"/>
$$     <Peak1D F1="1.340733" intensity="5.840033e-02" type="0"/>
$$     <Peak1D F1="1.323408" intensity="5.755932e-02" type="0"/>
$$     <Peak1D F1="1.316821" intensity="5.888361e-02" type="0"/>
$$     <Peak1D F1="1.269498" intensity="4.725188e-01" type="0"/>
$$     <Peak1D F1="1.252075" intensity="1.574694e+00" type="0"/>
$$     <Peak1D F1="1.234925" intensity="3.326984e+00" type="0"/>
$$     <Peak1D F1="1.197461" intensity="1.217073e+01" type="0"/>
$$     <Peak1D F1="1.093719" intensity="5.177369e-02" type="0"/>
$$     <Peak1D F1="1.075612" intensity="5.113612e-02" type="0"/>
$$     <Peak1D F1="1.058981" intensity="5.690355e-02" type="0"/>
$$     <Peak1D F1="1.046578" intensity="4.921593e-02" type="0"/>
$$     <Peak1D F1="1.042010" intensity="5.100129e-02" type="0"/>
$$     <Peak1D F1="1.025348" intensity="4.245959e-02" type="0"/>
$$     <Peak1D F1="1.005045" intensity="2.480998e-02" type="0"/>
$$     <Peak1D F1="0.978985" intensity="3.939002e-02" type="0"/>
$$     <Peak1D F1="0.963151" intensity="9.947059e-02" type="0"/>
$$     <Peak1D F1="0.945725" intensity="3.912004e-02" type="0"/>
$$     <Peak1D F1="0.925763" intensity="6.049305e-03" type="0"/>
$$     <Peak1D F1="0.826305" intensity="6.682620e+00" type="0"/>
$$     <Peak1D F1="0.809572" intensity="1.500000e+01" type="0"/>
$$     <Peak1D F1="0.791719" intensity="7.534274e+00" type="0"/>
$$     <Peak1D F1="0.749929" intensity="1.336643e-01" type="0"/>
$$     <Peak1D F1="0.669157" intensity="6.094967e-02" type="0"/>
$$     <Peak1D F1="0.652117" intensity="1.264193e-01" type="0"/>
$$     <Peak1D F1="0.634314" intensity="6.550765e-02" type="0"/>
$$     <Peak1D F1="0.430952" intensity="4.895828e-03" type="0"/>
$$     <Peak1D F1="0.381549" intensity="4.405120e-03" type="0"/>
$$     <Peak1D F1="0.364121" intensity="4.411250e-03" type="0"/>
$$     <Peak1D F1="0.074505" intensity="2.494643e-03" type="0"/>
$$     <Peak1D F1="-0.000108" intensity="1.411626e-02" type="0"/>
$$     <Peak1D F1="-0.495601" intensity="1.293065e-03" type="0"/>
$$     <Peak1D F1="-0.685008" intensity="1.105086e-03" type="0"/>
$$     <Peak1D F1="-0.829313" intensity="1.052162e-03" type="0"/>
$$   </PeakList1D>
$$ </PeakList>
##$RELAX= 
##$BRUKER FILE PROC=peakrng
$$ P    #regions in PPM
$$ # 2023-07-05 22:06:29 +0200  nmrsu@nmrf492r
$$ # low field   high field   mi   maxi
$$   13.2216796875  -1.47942291187312  0.000  10000.000  # for region 1
##$RELAX= 
$$ Bruker specific parameters
$$ --------------------------
##$DATPATH= </opt/data/apprentis.isic@epfl.ch/nmr>
##$EXPNO= 1
##$NAME= <f324b9c82ac5_reference_142-82-5>
##$PROCNO= 1
##$ACQT0= -2.3881445544821
##$AMP= (0..31)
100 100 100 100 100 100 100 100 100 100 100 100 100 100 100 100 100 100
100 100 100 100 100 100 100 100 100 100 100 100 100 100
##$AMPCOIL= (0..32)
-1 0 0 0 0 0 0 0 0 0 0 0 0 0 0 0 0 0 0 0 0 0 0 0 0 0 0 0 0 0 0 0 0
##$AQSEQ= 0
##$AQ_mod= 3
##$AUNM= <au_zg>
##$AUTOPOS= <10 >
##$BF1= 400.13
##$BF2= 400.13
##$BF3= 400.13
##$BF4= 400.13
##$BF5= 400.13
##$BF6= 400.13
##$BF7= 400.13
##$BF8= 400.13
##$BWFAC= (0..63)
0 0 0 0 0 0 0 0 0 0 0 0 0 0 0 0 0 0 0 0 0 0 0 0 0 0 0 0 0 0 0 0 0 0 0 0
0 0 0 0 0 0 0 0 0 0 0 0 0 0 0 0 0 0 0 0 0 0 0 0 0 0 0 0
##$BYTORDA= 0
##$CHANFCU= (0..24)
0 1 0 0 0 0 0 0 0 0 0 0 0 0 0 0 0 0 0 0 0 0 0 0 0
##$CHANREC= (0..24)
0 0 0 0 0 0 0 0 0 0 0 0 0 0 0 0 0 0 0 0 0 0 0 0 0
##$CHEMSTR= <none>
##$CNST= (0..63)
1 1 1 1 1 1 1 1 1 1 1 1 1 1 1 1 1 1 1 1 1 1 1 1 1 1 1 1 1 1 1 1 1 1 1 1
1 1 1 1 1 1 1 1 1 1 1 1 1 1 1 1 1 1 1 1 1 1 1 1 1 1 1 1
##$CPDPRG= (0..8)
<> <> <> <> <> <> <> <> <>
##$D= (0..63)
0 2 0 0 0 0 0 0 0 0 0 0 0 0 0 0 0.0002 0 0 0 0 0 0 0 0 0 0 0 0 0 0 0 0
0 0 0 0 0 0 0 0 0 0 0 0 0 0 0 0 0 0 0 0 0 0 0 0 0 0 0 0 0 0 0
##$DATE= 1688584751
##$DATE_START= 1688584710
##$DE= 8.236856
##$DECBNUC= <off>
##$DECIM= 3400
##$DECNUC= <off>
##$DECSTAT= 4
##$DIGMOD= 3
##$DIGTYP= 17
##$DR= 32
##$DS= 0
##$DSPFIRM= 4
##$DSPFVS= 21
##$DTYPA= 2
##$EXP= <refe_1Hzg>
##$ExpStatus= 4
##$FCUCHAN= (0..9)
0 1 0 0 0 0 0 0 0 0
##$FILCOR= 0
##$FL1= 0
##$FL2= 0
##$FL3= 0
##$FL4= 0
##$FN_INDIRECT= (0..7)
0 0 0 0 0 0 0 0
##$FOV= 0
##$FQ1LIST= <>
##$FQ2LIST= <>
##$FQ3LIST= <>
##$FQ4LIST= <>
##$FQ5LIST= <>
##$FQ6LIST= <>
##$FQ7LIST= <>
##$FQ8LIST= <>
##$FS= (0..7)
83 83 83 83 83 83 83 83
##$FTLPGN= 0
##$FW= 2.4e+08
##$FnILOOP= 0
##$FnMODE= 0
##$FnTYPE= 0
##$GPNAM= (0..31)
<> <> <> <> <> <> <> <> <> <> <> <> <> <> <> <> <> <> <> <> <> <> <> <>
<> <> <> <> <> <> <> <>
##$GPX= (0..31)
0 0 0 0 0 0 0 0 0 0 0 0 0 0 0 0 0 0 0 0 0 0 0 0 0 0 0 0 0 0 0 0
##$GPY= (0..31)
0 0 0 0 0 0 0 0 0 0 0 0 0 0 0 0 0 0 0 0 0 0 0 0 0 0 0 0 0 0 0 0
##$GPZ= (0..31)
0 0 0 0 0 0 0 0 0 0 0 0 0 0 0 0 0 0 0 0 0 0 0 0 0 0 0 0 0 0 0 0
##$GRPDLY= 76
##$HDDUTY= 20
##$HDRATE= 1
##$HGAIN= (0..3)
0 0 0 0
##$HL1= 0
##$HL2= 0
##$HL3= 0
##$HL4= 0
##$HOLDER= 10
##$HPMOD= (0..32)
0 0 0 0 0 0 0 0 0 0 0 0 0 0 0 0 0 0 0 0 0 0 0 0 0 0 0 0 0 0 0 0 0
##$HPPRGN= 0
##$IN= (0..63)
0 0 0 0 0 0 0 0 0 0 0 0 0 0 0 0 0 0 0 0 0 0 0 0 0 0 0 0 0 0 0 0 0 0 0 0
0 0 0 0 0 0 0 0 0 0 0 0 0 0 0 0 0 0 0 0 0 0 0 0 0 0 0 0
##$INF= (0..7)
0 0 0 0 0 0 0 0
##$INP= (0..63)
0 0 0 0 0 0 0 0 0 0 0 0 0 0 0 0 0 0 0 0 0 0 0 0 0 0 0 0 0 0 0 0 0 0 0 0
0 0 0 0 0 0 0 0 0 0 0 0 0 0 0 0 0 0 0 0 0 0 0 0 0 0 0 0
##$INSTRUM= <AV4 400 MHZ>
##$INTEGFAC= (0..63)
0 0 0 0 0 0 0 0 0 0 0 0 0 0 0 0 0 0 0 0 0 0 0 0 0 0 0 0 0 0 0 0 0 0 0 0
0 0 0 0 0 0 0 0 0 0 0 0 0 0 0 0 0 0 0 0 0 0 0 0 0 0 0 0
##$L= (0..31)
1 1 1 1 1 1 1 1 1 1 1 1 1 1 1 1 1 1 1 1 1 1 1 1 1 1 1 1 1 1 1 1
##$LFILTER= 100
##$LGAIN= -12
##$LINPSTP= 0
##$LOCKED= yes
##$LOCKFLD= 6773
##$LOCKGN= 127.678840637207
##$LOCKPOW= -30
##$LOCKPPM= 7.23999977111816
##$LOCNUC= <2H>
##$LOCPHAS= 341.1
##$LOCSHFT= yes
##$LOCSW= 0
##$LTIME= 0.400000005960464
##$MASR= 4200
##$MULEXPNO= (0..15)
0 0 0 0 0 0 0 0 0 0 0 0 0 0 0 0
##$NBL= 1
##$NC= 0
##$NLOGCH= 2
##$NOVFLW= 0
##$NS= 8
##$NUC1= <1H>
##$NUC2= <off>
##$NUC3= <off>
##$NUC4= <off>
##$NUC5= <off>
##$NUC6= <off>
##$NUC7= <off>
##$NUC8= <off>
##$NUCLEUS= <off>
##$NUSLIST= <automatic>
##$NusAMOUNT= 100
##$NusFPNZ= no
##$NusJSP= 0
##$NusSEED= 54321
##$NusSPTYPE= 0
##$NusT2= 1
##$NusTD= 0
##$O1= 2400.78
##$O2= 1880.611
##$O3= 1880.611
##$O4= 1880.611
##$O5= 1880.611
##$O6= 1880.611
##$O7= 1880.611
##$O8= 1880.611
##$OVERFLW= 0
##$P= (0..63)
4.666667 14 28 0 0 19.8 30 60 20000 0 0 80000 80000 1000 0 0 1000 2500
100000 600 0 0 0 0 0 270 100000 14 1000 1000 0 0 20000 0 0 0 0 0 0 0 2000
0 0 0 300 0 80000 46600 10000 30000 66000 0 4950 0 4000 0 0 0 0 0 0 0 0
0
##$PACOIL= (0..32)
2 3 1 0 0 0 0 0 0 0 0 0 0 0 0 0 0 0 0 0 0 0 0 0 0 0 0 0 0 0 0 0 0
##$PAPS= 0
##$PARMODE= 0
##$PCPD= (0..9)
0 90 0 0 0 0 0 0 0 0
##$PEXSEL= (0..9)
1 1 1 1 1 1 1 1 1 1
##$PHCOR= (0..31)
0 0 0 0 0 0 0 0 0 0 0 0 0 0 0 0 0 0 0 0 0 0 0 0 0 0 0 0 0 0 0 0
##$PHLIST= <>
##$PH_ref= 0
##$PL= (0..63)
120 120 120 120 120 120 120 120 120 120 120 120 120 120 120 120 120 120
120 120 120 120 120 120 120 120 120 120 120 120 120 120 120 120 120 120
120 120 120 120 120 120 120 120 120 120 120 120 120 120 120 120 120 120
120 120 120 120 120 120 120 120 120 120
##$PLSTEP= 0.1
##$PLSTRT= -6
##$PLW= (0..63)
0 13.806 0 0 0 0 0 0 0 0.00010824 3.0066 0.16012 0 0 0 0 0 0 13.806 0.33407
0 0 0 0 0 0 0 0.14848 0 3.0066 0 0 4.3295e-06 0 0 0 0 0 0 0 0 0 0 0 0 0
0 0 0 0 0 0 0 0 0 0 0 0 0 0 0 0 0 0
##$PLWMAX= (0..7)
105.5741 0 0 0 0 0 0 0
##$PQPHASE= 0
##$PQSCALE= 1
##$PR= 1
##$PRECHAN= (0..32)
-1 2 -1 0 1 -1 -1 -1 -1 -1 -1 -1 -1 -1 -1 -1 -1 -1 -1 -1 -1 -1 -1 -1 -1
-1 -1 -1 -1 -1 -1 -1 -1
##$PROBHD= <Z108618_0808 (PA BBO 400S1 BBF-H-D-05 Z)>
##$PROBINPUTS= (0..15)
<19F-109Ag> <1H> <2H> <> <> <> <> <> <> <> <> <> <> <> <> <>
##$PULPROG= <zg30>
##$PW= 0
##$PYNM= <>
##$ProjAngle= 0
##$QNP= 0
##$RECCHAN= (0..9)
0 1 0 0 0 0 0 0 0 0
##$RECPH= 0
##$RECPRE= (0..24)
-1 0 -1 -1 -1 -1 -1 -1 -1 -1 -1 -1 -1 -1 -1 -1 -1 -1 -1 -1 -1 -1 -1 -1
-1
##$RECPRFX= (0..32)
1 0 0 0 0 0 0 0 0 0 0 0 0 0 0 0 0 0 0 0 0 0 0 0 0 0 0 0 0 0 0 0 0
##$RECSEL= (0..24)
0 1 0 0 0 0 0 0 0 0 0 0 0 0 0 0 0 0 0 0 0 0 0 0 0
##$RG= 20.2
##$RO= 0
##$RSEL= (0..24)
0 1 0 0 0 0 0 0 0 0 0 0 0 0 0 0 0 0 0 0 0 0 0 0 0
##$SAMPLEID= <>
##$SELREC= (0..24)
0 0 0 0 0 0 0 0 0 0 0 0 0 0 0 0 0 0 0 0 0 0 0 0 0
##$SFO1= 400.13240078
##$SFO2= 400.131880611
##$SFO3= 400.131880611
##$SFO4= 400.131880611
##$SFO5= 400.131880611
##$SFO6= 400.131880611
##$SFO7= 400.131880611
##$SFO8= 400.131880611
##$SOLVENT= <CDCl3>
##$SOLVOLD= <off>
##$SP= (0..63)
120 120 120 120 120 120 120 120 120 120 120 120 120 120 120 120 120 120
120 120 120 120 120 120 120 120 120 120 120 120 120 120 120 120 120 120
120 120 120 120 120 120 120 120 120 120 120 120 120 120 120 120 120 120
120 120 120 120 120 120 120 120 120 120
##$SPECTR= 0
##$SPINCNT= 0
##$SPNAM= (0..63)
<> <Gaus1_270.1000> <Gaus1_180r.1000> <> <> <Sinc1.1000> <Squa100.1000>
<> <Squa100.1000> <> <Sinc1.1000> <Sinc1.1000> <> <> <> <> <> <> <> <Sinc1.1000>
<Sinc1.1000> <Sinc1.1000> <Sinc1.1000> <> <> <> <> <> <> <Crp60,20,20.10>
<Bip720,50,20.1> <> <> <Sinc1.1000> <Rsnob.1000> <Gaus1_180r.1000> <Gaus1_180r.1000>
<Crp_psyche.20> <> <> <Gaus1_180i.1000> <Squa100.1000> <> <> <> <> <Reburp.1000>
<> <> <> <> <> <> <> <> <> <> <> <> <> <> <> <> <>
##$SPOAL= (0..63)
0.5 1 0.5 0.5 0.5 0.5 0.5 0.5 0.5 0.5 0.5 0.5 0.5 0.5 0.5 0.5 0.5 0.5 0.5
1 1 1 1 0.5 0.5 0.5 0.5 0.5 0.5 0.5 0.5 0.5 0.5 0.5 0.5 0.5 0.5 0.5 0.5
0.5 0.5 0.5 0.5 0.5 0.5 0.5 0.5 0.5 0.5 0.5 0.5 0.5 0.5 0.5 0.5 0.5 0.5
0.5 0.5 0.5 0.5 0.5 0.5 0.5
##$SPOFFS= (0..63)
0 0 0 0 0 0 0 0 0 0 0 0 0 0 0 0 0 0 0 0 0 0 0 0 0 0 0 0 0 0 0 0 0 0 0 0
0 0 0 0 0 0 0 0 0 0 0 0 0 0 0 0 0 0 0 0 0 0 0 0 0 0 0 0
##$SPPEX= (0..63)
0 0 0 0 0 0 0 0 0 0 0 0 0 0 0 0 0 0 0 0 0 0 0 0 0 0 0 0 0 0 0 0 0 0 0 0
0 0 0 0 0 0 0 0 0 0 0 0 0 0 0 0 0 0 0 0 0 0 0 0 0 0 0 0
##$SPW= (0..63)
0 2.2464e-05 9.9839e-06 0 0 0.0078026 0.00010824 0 2.706e-07 0 0.0078026
0.0078026 0 0 0 0 0 0 0 1.593722e-05 2.477389e-05 1.156765e-05 6.238339e-05
0 0 0 0 0 0 0.10336 1.9242 0 0 0.00048766 0.00010915 9.9839e-06 0.00063897
0.00035696 0 0 1.4669e-05 2.706e-07 0 0 0 0 0.066605 0 0 0 0 0 0 0 0 0
0 0 0 0 0 0 0 0
##$SUBNAM= (0..9)
<> <> <> <> <> <> <> <> <> <>
##$SW= 14.7010162878829
##$SWIBOX= (0..32)
0 3 0 0 0 0 0 0 0 0 0 0 0 0 0 0 0 0 0 0 0 0 0 0 0 0 0 0 0 0 0 0 0
##$SW_h= 5882.353
##$SWfinal= 0
##$SigLockShift= 0
##$TD= 32768
##$TD0= 1
##$TD_INDIRECT= (0..7)
0 0 0 0 0 0 0 0
##$TDav= 1
##$TE= 297.9995
##$TE1= 298.2694
##$TE2= 0
##$TE3= 0
##$TE4= 0
##$TEG= 300
##$TE_MAGNET= 0
##$TE_PIDX= 1
##$TE_RAW= 298.2694
##$TE_STAB= (0..9)
1 1 0 0 0 0 0 0 0 0
##$TOTROT= (0..63)
0 0 0 0 0 0 0 0 0 0 0 0 0 0 0 0 0 0 0 0 0 0 0 0 0 0 0 0 0 0 0 0 0 0 0 0
0 0 0 0 0 0 0 0 0 0 0 0 0 0 0 0 0 0 0 0 0 0 0 0 0 0 0 0
##$TUBE_TYPE= <>
##$USERA1= <>
##$USERA10= <>
##$USERA2= <>
##$USERA3= <>
##$USERA4= <>
##$USERA5= <>
##$USERA6= <>
##$USERA7= <>
##$USERA8= <>
##$USERA9= <>
##$UUID= <368ac59d-28b3-4189-863f-9da01f0ddcaf>
##$V9= 5
##$VALIDCODE= -1
##$VALIST= <>
##$VCLIST= <>
##$VDLIST= <>
##$VPLIST= <>
##$VTLIST= <>
##$WAVEMAKER= (0..7)
<> <> <> <> <> <> <> <>
##$WBST= 1024
##$WBSW= (0..7)
20 10 10 10 10 10 10 10
##$XGAIN= (0..3)
0 0 0 0
##$XL= 0
##$YL= 0
##$YMAX_a= 202127447.492188
##$YMIN_a= -222629220.703125
##$ZGOPTNS= <>
##$ZL1= 120
##$ZL2= 120
##$ZL3= 120
##$ZL4= 120
##$scaledByNS= no
##$scaledByRG= yes
##$shimCoilTempK= 305.15
##$ABSF1= 13.35055
##$ABSF2= -1.350554
##$ABSG= 5
##$ABSL= 3
##$ALPHA= 0
##$AQORDER= 0
##$ASSFAC= 0
##$ASSFACI= 0
##$ASSFACX= 0
##$ASSWID= 0
##$AUNMP= <proc_1d>
##$AXLEFT= 0
##$AXNAME= <>
##$AXNUC= <1H>
##$AXRIGHT= 0
##$AXTYPE= 0
##$AXUNIT= <>
##$AZFE= 0.1
##$AZFW= 0.1
##$BCFW= 0
##$BC_mod= 0
##$BYTORDP= 0
##$COROFFS= 0
##$CY= 15
##$DATMOD= 1
##$DC= 0
##$DFILT= <>
##$DTYPP= 0
##$ERETIC= no
##$F1P= 0
##$F2P= 0
##$FCOR= 1
##$FTSIZE= 65536
##$FT_mod= 6
##$GAMMA= 0
##$GB= 0
##$INTBC= 1
##$INTSCL= 1
##$ISEN= 128
##$LB= 0.3
##$LEV0= 0
##$LPBIN= 0
##$MAXI= 10000
##$MC2= 0
##$MEAN= 0
##$ME_mod= 0
##$MI= 0
##$MddCEXP= no
##$MddCT_SP= no
##$MddF180= no
##$MddLAMBDA= 0
##$MddMEMORY= 0
##$MddMERGE= 0
##$MddNCOMP= 0
##$MddNITER= 0
##$MddNOISE= 0
##$MddPHASE= 0
##$MddSEED= 0
##$MddSRSIZE= 0
##$Mdd_CsALG= 0
##$Mdd_CsLAMBDA= 0
##$Mdd_CsNITER= 0
##$Mdd_CsNORM= 0
##$Mdd_CsVE= no
##$Mdd_CsZF= 0
##$Mdd_LrLAMBDA= 0
##$Mdd_LrNITER= 0
##$Mdd_LrRANK= 0
##$Mdd_LrZF= 0
##$Mdd_mod= 0
##$NCOEF= 0
##$NC_proc= 6
##$NLEV= 6
##$NOISF1= 8.174992
##$NOISF2= 6.675002
##$NSP= 0
##$NTH_PI= 0
##$NZP= 0
##$OFFSET= 13.35055
##$PC= 1
##$PHC0= -85.35256
##$PHC1= 12.935
##$PH_mod= 1
##$PKNL= yes
##$PPARMOD= 0
##$PPDIAG= 0
##$PPIPTYP= 0
##$PPMPNUM= 2147483647
##$PPRESOL= 1
##$PSCAL= 4
##$PSIGN= 0
##$PYNMP= <proc.py>
##$RDF1= 0
##$RDF2= 0
##$RDFWHM= 0
##$RDINT= 0
##$RDPOS= 0
##$REVERSE= no
##$SF= 400.13
##$SI= 65536
##$SIGF1= 5.6
##$SIGF2= 5.2
##$SINO= 0
##$SIOLD= 65536
##$SPECTYP= <>
##$SREF_mod= 1
##$SREGLST= <1H.CDCl3>
##$SSB= 0
##$STSI= 65536
##$STSR= 0
##$SW_p= 5882.35294117647
##$SYMM= 0
##$S_DEV= 0
##$TDeff= 32768
##$TDoff= 0
##$TI= <>
##$TILT= no
##$TM1= 0
##$TM2= 0
##$TOPLEV= 0
##$USERP1= <>
##$USERP10= <>
##$USERP2= <>
##$USERP3= <>
##$USERP4= <>
##$USERP5= <>
##$USERP6= <>
##$USERP7= <>
##$USERP8= <>
##$USERP9= <>
##$WDW= 1
##$XDIM= 65536
##$YMAX_p= 538071064
##$YMIN_p= -360547
##$CURPLOT= <>
##$CURPRIN= <$>
##$DFORMAT= <normdp>
##$LAYOUT= <+/1D_H.xwp>
##$LFORMAT= <normlp>
##$PFORMAT= <normpl>
$$ End of Bruker specific parameters
$$ ---------------------------------
##NTUPLES= NMR SPECTRUM
##VAR_NAME=  FREQUENCY,     SPECTRUM/REAL,   SPECTRUM/IMAG
##SYMBOL=    X,             R,               I
##VAR_TYPE=  INDEPENDENT,   DEPENDENT,       DEPENDENT
##VAR_FORM=  AFFN,          ASDF,            ASDF
##VAR_DIM=   65536,         65536,           65536
##UNITS=     HZ,            ARBITRARY UNITS, ARBITRARY UNITS
##FACTOR=    0.0897575827205882, 1,          1
##FIRST=     5882.26318359375, -360547,      -1325130
##LAST=      0,             -92148,          -1347859
##MIN=       0,             -360547,         0
##MAX=       5882.26318359375, 538071064,    0
$$ Real data points
##PAGE= N=1
##DATA TABLE= (X++(R..R)), XYDATA
65535c60547N49j87J72J090J303P54M69P68R12M89M9N9K62L44M95Q25R54O47K76
65516c50317K26L07K73L78Q71J288J072N40N02R84J216R28Q25J363J849J411L43
65499c35941k41O8N77N63J55p8J03M58O70O20M76N73R94J304J020L79K13Q37J515
65480c25735J432P57L42N35Q72Q34M27j1j14L69J279J845J346J02o40j65Q31J212
65462c14482Q43N49Q42J286J225O41J15J00M79P51O24L44M02Q59J195R58L69k
65444c02902P0L86P74J159J284Q56J18k28J44P80J134J163J068Q41N04L57N63
65427b91929P62O21M19N65Q14O74L60M97R63R76M51K17N78P50K96K7O19J240Q26
65408b80274k4J43J245J687Q03j46K2Q79J460J721J958J716N18q53r74L72J908
65391b67839K377J707O01k62n80m19j77j64k48q6L48P79J037J109R62O17L45L66
65373b59527N48O67Q14J112J313J123P31N49N60M91L77M16M35K20J25O43J418
65356b47985J574J082P63R03Q08J63k66J74Q95R30L55lJ93N07N76M81M48N71P99
65337b37032R20P04K93J07K39L10K10L73R85J517J453J066Q11N82J79l4L29Q29
65319b26159Q25N31O39J065J084O12L36N46P04M02n1l10m71o24m51K64J205J818
65301b18035J822J315P03M81P17Q43M28m5J67Q73J190Q98O09O02M66J56K94J014
65283b05502J538J323P89L86j19p41p60J62J106J200R03R67R84K09p25m89P77
65266a97992J492R17O6M9O74J216J419J306P47l9k80L69J209J351P91J74r1J8
65248a86604M84J122J437J098M30M1N7J72K27L62O33Q61R01Q05O66N41M56L98
65230a75913L22K40K25K32P8j89j59M53J213J264L68o00n54M99J379J127J81k28
65212a70062L33J026R52K86j81p7M18J063J543J378N34r0L50J293J374L41n94
65195a60113n23M2L40N42J012J312Q73J23j0M90P89M58o9k31J11P55J288J228
65177a51583O11J86N05J099J224R81Q97P52Jq43n77P95J752J315K83j40R1L65
65159a42286N67Q25Q35L78k0J41M44K81j7K83R38J037N46L36O58O99K8n68l05
65140a35200L87N88K76K02O56J071Q91L44J28N61J205J350Q03J16q5J83M53N34
65122a25537O61Q58P75K64k36k23K60P70J036J059R10O65M61L70L23K62J52j20
65104a17290o52j125q83J83J172J116K47k37K83J100J219O55K83N63R94Q88K87
65087a11197k00k51j20r3m5K72P43J007R37P09M88L24K68L59M72M90N18O80P73
65068a03866N50K29K58N36M69q1n01l28J56N35Q36J059P94j8n22J8R97J144K79
65049i7456m81l38K69N54M40L27M20O44Q96J053R62O85M40K43r3n28p05m75o5
65030i3208L00O02Q22Q68Q34Q73Q05L58j55p9N47Q94N79K60M78P01K31m92m33
65011h5215N17J402J555J275J082R33M72l88j256j554j005K3Q30J184J437J681
64995g7027J319O4j178j219j23R44J228R17L07n20j123q34J77Q40O44L28O30J080
64977g3546Q06Lk99L07J110J240O30n2j20M36Q66M55m69q30k83K93K48K71J090
64958f7844J783Q58j149j842k19J697J529k84j322n82N84Q12N01O55J145J077
64942f2601K62n58p29k57M87J079J134N99o4l43k76k02o9M53J216J528J022P4
64924e7245p00r53n72K78J012J048N98M21O70P62N47O27J059Q42m25j447r58K43
64906e4193M60k81m09N74J369J073M18K84L75J87O2L48N08L5n32m92j52j51k02
64887e0719L84J334J621R16j04p43q39m71J80O66P18O18O76O05M7n82o16k13k2
64868d6544l4K74P66O78j7l26L49J301J488P92j8j95K80O65J75r33j381n26N17
64849d2689M14l26j99O86O92n07j166l02O86L73l29J27J276J528R01P16J087P72
64831c6260m81j326r32r1K89L72M94M06R9K59J054J534J012K11R3L21Np13q60
64812c4514j73O72J174J403J299O12l39p10k96N9l60j025q15M77J805K015J060
64795b7656j01n96m52k98m65p20p90o79m04J42P24O84j75r69o89M70J357J351
64777b9266Q55L33k49p96p73k6P19P83M41L50M80L80J45L21R21J275R15R0o94
64758b3796j064p60J77J120J311P97L83M64N53J87l49n72n42n30m33o7L55N86
64740b2180Q13J127R55j57j428j517l58O35M43k49k14N83J071O39j44l41J71O03
64722a9548K22p31j223o57L54P43L64L2K25M59K24j57o8M31P28M88j19p05q38
64703a9776k35P56J199O22k07k44M12P81N38L47O14Q34N42J07O0K50K66J76K28
64684a2730J93k61p95p33q1N05P02P38N97j47j359j969j262K4N67J93m1N67J435
64665a3857J575Q04k60r82j078n58K75Q62Q70N35K85Q3l86r43q70J15J263J562
64647a0705R08R2k90m08n76n52J05J162J757J406N71jj74l13n29n64l49j86k53
64628h899l71m21n33o65m53J76O74N82J70j13l72q41j029j91J378K399K089R52
64610e468r9p43j145j393j424j128l76P19J525J463Q30M08K48k52r91r67O5R29
64592g799P19J17M1L4o64j311o29Q40J185%q93j80J059J100P4m86O8Q23Q25K80
64572d797NK55M71J68k76m0Q85J411P52m18r09p66j007j734j731l71J217J600
64554e285Q55J59J22L23K12k91r01j135n78N43J247Q02k80q03l12M55O15J57k04
64535d299L5N54N52k73j268j509q15K49J186J817a875f87J01n24m50k17r0L08
64517a559e99D52K16a1p01j09L53E8M13B7a893k541j228P26J116o5p67p1O93N05
64497c525K81R55g04A98b23p25O5L95m62j331r18M40J304e55j76q22n87M9M49
64478a642N96b03I01Q85K24j34J32K97k59r06D61O8J03g2j006p4b64H4a158j929
64458c087q35P34J064J32o27k22Q82d10H46M09k41k76J37N59P34O92M35j51q43
64439B301r78l07L66J27o19B98L79R64L68l97j17P38R04L43j1m2m13q83l62J039
64419B808J630N25r49j183n05l25q18C96L74J693J790M30j237A633E87j29k10
64402B48e39l56C48K288J621L78K45Q99P19n51j473j196m62j13jM2m97E34a925
64382c637j42O66L03j54K11J043b48I40O21J88O7K18M13L08k15p77H67B51a43
64362e21j67b95D13K53B17a44C92J132P19m9j97K24M24R0l54m40j20L39N84L64
64342C108k00p17j019A4i04M9D38J623P06k00J9O82M66m38p12j44J75j94l80R0
64322B131L94j24q29F94B36I0O7L16K39k92h6I7J026R00L5l40J66P43Q68R09J065
64301E469P70k56j181j040j54K99r8n58l83M3j2m40n23j34N5k56m80j42K74J89
64281A442L4N71J446J522N80l57n97o02q76j031n92R6M16L57K37Q6q1P1O04Q53
64261D179L02m95o05k1M28L08m0k35l33m95p10q34o86j54M96P33M36Q3qj03l53
64240A893k57M70J143R58J90k84l04k82j81L20Q22N60k48n26J9M30Mo47o31o1
64220C388K07k16q17p41K32J269J202Rr12n41K96J73q02j282F26l00J2O48J444
64201B430J240j20j137q41j49m2R6R59J541O74p27q28K47O77j38q77o42k19l89
64182A755n89j05N53M90j45m48j21L07L46N1l13n84E50B18M12J300J733J302K51
64163E216p29j249j451C76d90J10C89N74Q1J38N96N96m3n65m53k0K67M05N19N24
64143C008L15m0m57q20q59m56O3K80K15L0l56A48c27D54J756J126l98q29J48P37
64123B994r6j060p46J92L74m1J7N41O31J92j06k41p10H44l49J309K128J087o65
64104D354j299n20M76O50R6m55n10j79J61L82O21P61L43o17j181n43O76J059L06
64085D581m49l73n2l19q36o64J68N86j9r55D95i5r4k84p05m81M99B37J504J038
64065B779O19L73k2n95r49q10k97L19P16O12J08j74J30M48J6q40j066n15k27a36
64044a462j051k97J35L09P45d26E25J95q7L86O81J04o56m69N75J197O02m87p83
64025A783r2N19J96o00q35l66mk60d12r63q74n75J71a323H22J895R06K07K44M78
64005D552K31m72r61o11M43J213Q08l68q62rJ099J075P6o75p49q01j088j015l47
63986A539K08J80P1L58N82J59m85n42r8O5k12l37m7J33k07o72D2a03C15Q54J252
63965B421J482J116O5j025j308o75J02K64j15l84k18O0L0k02j47L91R59Q40q9
63946C567j022r97o8P02O16J66O2N7m21q87k92J076J525L35j028r19J93O32N6
63927C353l31R0M35j00q70p83K4L81k78G58d21l35K82r5r14r74m8P98O41j36n81
63906a783m67j77L12h26A408K049O23o65o89k5k0q85B85f96c21A150J487M50q21
63887B266I39A70K12Q29R57Q73N33k48j069A104m26L32O29R06J506J751Q34p28
63869E908j554j248q08r91A13d51H0J081R33Q13Q91M87n56j213o27N86J078M82
63851D035l40n65k45R3J25q1j93N8N41O91K25l15j73N47R35M25n06r62n99J68
63831C864O18K96n48j118r15m01m01D85f50o72RM61aA257J150K54o19m33N85J158
63811C352O28l37p71n69l44n42D85d05j03D20J288P15k4j55Q3j1l65k52L84O94
63791B777K36k88k05O7k09q35E29a00l06k47K5D4J040O31j18n17E30c6m16a25
63770A251J729R19k96q33n04K0J64n1l20m13j66M99J352J838J524N81l71q10p33
63751E380m42j15K73N64L58l93j005p98j58k02j169C94i69j55L63m6l73rN08a08
63730C22N62Q02O95K42j68k94q6M43R98J031L86l33m61j44k2k75m77l18OJ69J17
63709C195M4J20K38P6m57q45n07K49M95J11J03R33J452N17r53j024M52J541R33
63690F673m26j025q28p29q51n92K6K55j72n55k22N18P80J74p20r71l00N91P66
[...]
4905f075017J219R43O11J043J676J224l0l62P44J771J518Q14R32J599J664R01
4889f058750K0n11o11o8J108K139K223J631J219J145R27O06P65J370J605J127
4873f044055O34Q12J394J651J300N60k07n74k54M55Q06N64L74Q51J715K284K403
4856f029287K276J748N34q57j280l51R86J616J521J336J162N85k29l32P25K006
4840f017841K203J254L13K11N75P61R49J739K859L154K050M80j39M80J379J698
4824e997875J497J171P83L44J72L65L89j01l90M16J819K323J584R16J262J843
4808e983482J656J137J166J367Q26n8o0P81J190Q44Q33J627K187J742J037R23
4792e966284R71N15%J74P94J186J369J575J451Q26N08J105J710J159M1o1R98J893
4774e950070K024K072K229J709M88j11O26J591J553Q99P03R22P46J33j90R0N53
4757e934033Q60J075J246J305J329J438J482J227P71M19K81K66L37M69N54N47
4741e920427N89Q01J135J570K110K387J845O46j04L92J494J855J185N30P28J292
4725e901972J183L63j16M30J229J024n8m09Q88K586K845J765J098J593K081J602
4709e883868R50J153J673J401O12M58R71J129Q03J033K087K669J774J92o27m52
4693e868042m2L06R61J864K259J732Q98O43J087J575J555J146P98O64N00J42j54
4676e852108RO20J209J366J137Q65P59P64Q05R62J314J665J635J098M12N8J41
4659e837289L99N97P19P72P33O67P49J065J526J938K015J495N17k94m69k23Q6
4642e824997O44J656K380J773J97o34J60J482J858J268O39M11N00R61J661J904
4626e808137J339P64J020J619J586J174J347J913J727O66k6K76P71P69O91R89
4610e791512J228R70N64M30M16M88J035J835J813O94j56L82J366J184P7k39Q17
4593e778608J963K074J554J315J420J368J039P63P37P80O19K13j13O7P09J261
4577e762839J405J538K058K475J907L96r30j139m53L26Q41J301J831K087J686
4562e747510Q39L37O30J160J034L90L37J297K092J458j37j025m74O84J475J903
4546e735510K336K560K010O93o09j042n14K32M64L37N94J364J862J593J137J123
4530e721370J161O56N7J93P78Q88O78J095J942J888P80K55J270K464K116N30p19
4513e705338r90p18r1R48J864J989J574J353J299R57O19R07J390J035K9k36P17
4496e692692J704J637Q68K08k27m98j38J062K264K436J606O35J31J80O87J306
4480e678831J477J077O96P74Q97N76K07M97J263J663J412R86P34N64M74O74J079
4463e663781J319J296J213J059O60K46K99P96J196J253J188J031N10k33n15k9
4447e652492P11J136J256J286J215J074J096J269J246J001R67J160R61J97k53
4432e638170L59J455J927J614J165Q80O48P06J381K160K054R96nk44l5J62M90
4415e622457J134J729J779J290O45K32L44J002J640J492N70k10j25N35J011R86
4399e608403O54L18K75O70J195J315J068J114J697K070J476K09q03j108q33j15
4383e599201Q45J439J146L55L0N26J273J604J376Q33L38K88P16R94M96l79m75
4366e587796O81K266L191L159K419J194j55r03o33J40N90O42P89J114J193J014
4350e571095J064J360J193L18l60mQ37J074P80R37J553J446K83n17K63J787K390
4333e556691J894J412J346J076N43N62J230J448O22l41m80j58j49k28K90J217
4317e546407J793J868J872J843J435P22J65n2j1L91J156J747J682J382J584K084
4301e526746J994J113K06j23K9M52R95J197N90m03q12m65p7J15O96J679K004J132
4283e516424J61M15J574K189J653P51M50Q83J501J670J149L12r4K59R19J240J087
4266e500305P41L92R1j2K17O68J094J354J401J233R42O88N34N35Q42J391J617
4249e486577J016k4n62k99K31O78J227J804J833J239Q07J026J356J195P62M90
4233e473798L15K03N86J448J799J009j8j3Q57J420J229P76L71l6j69K91Q75Q44
4215e462011L76K46M96N64N30R79J599J401N07K75J181J879J149l31j037o00K02
4198e452595Q55J510K199K535K264J644J170J021R07M85j2J10R39J491R21j90
4182e434746n59j6M65L99L26N99Q23P82Q57J135J134Q17Q04J103Q38j45o15K00
4164e425799J247J292R20J468K649K819J403l29r47l23P25J355J134L09k82oP89
4147e411576J284J190Q30N29N03R33J596J778J252Q31J139J469Q84p4j14O55Q45
4130e396046Q5m41o6K86j39m56M51K021K752K285J587J337J182P02K49M27J180
4113e382604J778J607Q45K79M80J162J532J143L05k80j26O99J476J349K70o35
4097e370720k00J360K654K779K119J497J079N75l7l38O7J043J777J340j76j312
4081e356493p45R91K035J518M72K06P30J277J483J411J042M91K05L75N51M04L81
4064e343666R14J511J362N85P5L26J022J601J666J058J68j49M41J163J181Q53
4048e329889J034J545J405N36j5K69O57M72J21K05N19O07O32R51J285J121N81
4031e317964K19K04K97M73R23J505J777J568J126P31N14N72Q47R57O54L37N59
4014e304701J091J125N63L19R34J591J211R3m56N3O92N86Q8K8L99N65M05M41Q93
3995e294080J322J412J406J509J407Q12Q5j34K27O61P25M60K47M84J202J810J599
3978e278846P79M67J144J713R48n41j011q0P94O51M04J095J996J731N21j95J7
3961e268413J44l45n72K36J387J730J204O26L99L40M84J128K031K330J605M96
3945e255190m0K28P61R99Q59O25O03Q28J061J081R92J054J245J249J068J163J687
3928e239727J935J202k7m94J75J004J119Q58Q81R45M27m24p68n25l70m46j74N05
3910e233904Q37O71R37K017K669J722k3p61p2R69J601J944J901J103J06Q0Q79
3893e217324R31k53r69J56J885K126R97L83R43J414R04J03k04l07n73n34J67Q51
3875e209304Q21N79R98J777J784Q60J99P43J908K360J619M94P4N56J220J335R01
3858e191076M31K34K06K41M24Q19J307J685J658R26k91j004m08Q85J418Q63M68
3841e181214J106J911J710Q66N90R37Q77Q9n48m05J53O47J128J545J426P33K05
3824e168244M00R22J165J180J257J211O97k9k97J70J020J623J473N81k89k03P71
3807e156592J508J315Q46J034J669J793J087L9q93j384r00P24K361K467J061j31
3791e143996Q9R78J178O14K49N49J086J350J236Q47M50N09J151J679J264J02o63
3774e131328l67M23Q45Q15Q24J047J230J291J411J549J371Q69N56P90J146R70
3758e116558L49L9L94Q96R57P51P87R57O66j28o04j06R40J569J450J080Q92O97
3740e104972K00l35l22L62J183J594J594J499J321P34k59r70o22O96K017K494
3724e093786K172J576R19J76l05K8R61J421Q33K7J33R21J153M42j84J46R69J321
3706e081077J060P35O61P60R85J250J287J063R70J023N71n07r58J99J770J685
3690e068523M7q39K26J709J831J023O99R22P93L15K78O65O90K66J20M33N36Q5
3672e058724m26n26k19N35J818L055L192J993M74k68j30L49P42R10Q26N94L76
3655e045429J86O6K77Q84J322J060N01M09O67N16O9L16J410K175J798J005P98
3638e031970J040J027P60O63O65M52K67O41J492K145K083J284J20p23o66L9M80
3621e020201L38K53N71O42J10r0Q33J885J515O3n62L85J554J592Q14K62J97K21
3603e009618K05L15N26O82P57P66O87O16O77O56J86m92n65K78J268J468Q96L30
3585e000362K60N19P77R51J070J044Q21N89O14Q49R11O32M02O03Q89N97j67n27
3567d989528j68J48j24l46K76J354J919J827J570J147K25p25p34K29J179J616
3551d980135J969K395K313J524P59N52M78J8o14j052j306j194j29J773L135K807
3535d966707J316J15k06j07L3L22P65J042Q86L33l41o12k7J152J975J884J335
3518d956842J009R15Q10Q38J072R93K79l80j69N13O14R4k6P24J573J712J232O48
3500d944391J80j11p9K22M27L17J50K94Q13J471J917J829J171L90M1K29O05Q51
3482d933674Q69O80M05K66L00K37L4J37P48J190P33j64k91O48J640J732J109N11
3464d922890L41N89J078J417J189N86L80R10J458J114Rp71m72M65R51N21j80k83
3446d913588J73M57M00O91J543J948J080k19m04O54J642J764J519J434J313R99
3430d898594P81O35M6q56j037kJ322J824J508R69M08j17k18K42O79O90P20J130
3412d889870J333P45m8j62J86K16R2O01J651K293K161J720J165K88n28n04J83
3395d878478M32j2j9J085K232K033P22k61j58M48O40K06l28k48O35J630J726P70
3377d866945k12k12N70J062O85k8j63N18J374J624J210P85Q47J161J257J111R40
3360d854416O45J55qO85J638J620N70j81J26N29rq28n37Q35J912J933J485J192
3342d842654Q47J62m82o01l15j1K42N15O44N18M84Q88J337J085K10j70O71J889
3324d834741J911M68r59r94MP27Q25J044J571J521M70m85j19J105J652J030K91
3307d824679L92J021J328J052N17R2L0M15Q61P07j24p80m87L85Q11N20K86P84
3289d816869J631J872J152J12k96K98J341J899J542P85N46J051J508J066nn47
3273d802914j7P64P47J54J29R74J621J154J43k34J54M64L37L24P79J217J152Q54
3255d792198Q41J111J351J475J488J193N31n2j07J46J70p7j68P5M69R20J401J554
3237d779877R85L6m28j73R2j43m17j31M65O84M38K10K42M20P34J246J634J425
3219d772558P64L83O33J052J139J028J077J225J191J057J160J476J568J155M84
3204d757166Lr2J02L54M44K10k81o54m74L01J170J468J030L35L4L39R23J309J234
3185d749411P35Q7l20k79R7N63R86J279J214O79O0m0M25Q34P42M44M11N73N89
3166d740332N08O39Q84P95L51Q7K55L96J04k03J45R96J509J381J274J704K088
3149d727419J461l5j104q20L74J332J443Q51j6o59n76K37J059J235J038J120J362
3132d719117J145O49P65J450J459L11o51j74Q82Q50r0k24R26J810J263K02M2O30
3114d707872P84K38j15L20J122J590J628J604J732J779J353M67l19n66n90r12
3098d697757j174m11J373K708K331P57m95p27m04p5J94M52O75R39J217J177P33
3081d688487N63J247K081J767L50n91r9Q41Q11J2k12N72J336J169M37N6K02L01
3063d677644N1j55J36P54J165J165R94Q26N63K74L50Q84J253Q81J69O2O91J173
3045d666408R40N58Q18J526J844J482R29N65K32j46j53N49J518J892J388O06K76
3028d651584N01Q71J021Q19K07o24j058n45N69J209Q55K11K52R91J714J996J845
3011d640750J192P6q03o20L24P43M6q49q03J56J139J512J189M56k1M50J594K079
2993d632890J115l26p19L0P58Q73Q40R57Q26L69K53Q46J514J581J200P75K19n57
2975d622336j017o92o1R4j00Q8P30J170J222J429J872J758O73m99o63PM87M55
2957d615383N01Q81J036O55L97R05J615J366P0r82p08M78J349J414J273J501J814
2940d601818J566P26m9k64j52k45n69n61J65J212J770J518Q72L57P0r7m0L13O22
2921d594604M92K09N08J384J797R41n31j233o99K75Q73J107J251J194P86L58L79
2904d585513Q28J268J361R65N6j010j446q10L48J128J365J431J249M05p43j124
2888d580242m24M37P16Q04J146J202M57l02M3J147J649J151N57M38M10K49L65
2871d570197P34O12j19m48K23J057J177J068J533K000J344j28q85l15O24R99J013
2854d559708J124J144P28J16k04j05K99R29J539J649J058J66m97p80p85n84k68
2837d554179K4L73R52J533J538Q64J82L6J21m7j73L79J436K072J846J319J135
2820d540589J243J262J180J202J230R51K99m63j043j197o72N18J778K304J887
2805d530110J033K18n27j160j263o32K04O01O58Q21Q76K32q22j143l05O94Q64
2788d529761N17M52N79K68l22l21N27J514J914J669J098O42P62J442J850J270
2772d515900K45j9O01J015O27J33K62P06Q54P37O39M75K18K90Q52J287J071O12
2754d505295N20N75K36l21m88k20J07M82J081J489J107K17j86K85J015J317J075
2737d497004M56k86o52k77L99N88L42M69J182J668J386Q92Q76J070Q13K33O4N35
2719d487246J081J145Q14N73P17J054J095O17L7k1M72Q66P55N25O90J037R12K70
2701d474607j36K26Q43P45j79r01m92O70J359J057M68L68O30P54P19O98M47j71
2683d467502m95J43J178J458R86Q44J268J194J69o19q7J021J251N20q9j21j08
2666d458989l81n75l54K01R32J622J806J233M43J79L99N76P08J034J041J0j311
2649d451426j093R52K709K332O64j89K17O30M29K80M88L20m78r08k25Q42J268
2632d443188J237J459J658J073N9j76N47J085P69K78K88M66M93Q97J867K247J003
2615d427938q84j465m42O16O47K89M78J090J538J643J391P02p3k10L13N89J63
2598d421553j98K54J051J310J036P94O68M12J39R0P3p7K8N95R05L12n00l42O57
2579d414346J209P37l0l37k31L3L77N04R1m45k24P71J537J484J131J050R99O31
2561d405059K63L31O90R26R51Q80P21N97P14R67R51N85K11o5l72m24K58J210J247
2542d394418K21n02k0P56O69J74L75J053J093M58K28P21J024N94J13L03Q81J159
2524d385118R71N34J0l84l12K16O93P28M39J03j52q4N91J533J762Q86j58k13N04
2505d377451Q03L61J98R67J760J403L22J9Q13J361P16l05n41k31k58l72L43J577
2487d368515J903R75R0J58N02M33N49J426K179J728O55L42P12M33p61j491q05
2470d359487M42Q39J86n18m20L81J072J006M08R7L81P00O44O62J078J199M15l75
2452d351290R5J289J443L47j90Q79K140J785Q6j241j289n16L49R22J022P86P11
2435d342672R97J213J032Q61J159J566J386N60m00j095j287p01M91J312R20k29
2419d334887q29k77P93J435J306O81Q5k0L96Q83J049J048J220J488J510J242Q98
2402d321979M69j62p50q14l23J92L27K53L58O85Q86O78K88L63J242K298K419J300
2384d312270p1n34r0K73j32r21j149l75Q59J563J415J107J359J807J574P32K82
2367d304571N79Q06M19O6L78P98N00k27n48l85j30L12J143J733J309K55l53l32
2349d298248l27l92K4P48Q81L31Q6N94J083R07M87L70L26J8k44k4N55J122J486
2330d290217J442Q36J29Q6N98O66n1o04k76K52R4l08J42J457K460K277J197J32
2312d279688k50O6N46O94O27P20P66K04p08r21j26P07Q14P11J068J551J562J322
2294d270335J206R02K52O1Q35J492Q17m28m82O93J397Q33O6P2M45N26M50M69M12
2275d260317L50P41J368J235J88n18PR20J015N26M78R05R77N31K78N14O66L08
2257d249828j35q0L66O28M79L41P47J587K039J381j54j531j859r97N41J843J937
2240d242695O23r16j123R3J246J228N38J60J49N7KK94N68L00j25K9N61O53M13
2221d237945Q00J859K334J556N94P02J404J239q7j332j440p29q9K06M45P01P33
2204d229049N92P34J302J677J185R4n58k39M42O04K50N0K91O17P49Q02Q29O30
2186d218998K86L26R58J560J423O93P8j80l90n57k06P35J444J129P3p12o57n1
2168d213046O17J149J393J047P5r55j292p42K39J057J426J406J245J178J195J077
2152d202931P63N75Q30J301J409R56L73J33J74J32o9j02K78P97Q56K30m67l20
2134d195082P30J516R39m85j037P3J604J828O99k47KP76Q89L10mM30R55P59nm34
2114d185784k1Q02J282J180Q43O47O22N97M76L33K83L08K54R5M9K76M80K26l46
2095d177398n45j08M01N13O46J272J850J501N14J40P99J529J452Q68M01L3m10
2078d166542o01k63J70K32K23N70R01O09k3j44L89R49J148J102Q23K05l56k33
2060d160841N29J251J609J711J376L47p36p13L18Q24kr73o81M23Q40K60k14J14
2042d154558O71P10L87L83R70J734J983J380L56l00l46l29n45m05N92J675J627
2025d144015N75j41Q2L82J08j2Q58K003J971O56n35n99m8J85M2M9K76L07J2k28
2005d138072p9L47P39R15Q52O77O45R25J285J238O50J0j41J35L23K24K24O50J177
1986d127276J122L74l33k16O08J279J256Q90P16O46K52l12l76K26Q03P23K21j19
1968d119516j33L6M59J168J680J425N84q3k34j76j60k4L47P04Q01O60L96R4n8
1949d112030O8K72L14L78P21R79O35K9K8N60O39J20J21J057J582O26n72p2J836
1930d102709K970K238P31k62p30j031r06k06M03L22l4J61J043K025K432J931Q07
1913d090815nK14Q69O42n21j142l72P01Q02M31P70J556J569P89M16P89R37L86
1895d081984j06m5k0l90n02k5J83l81n31R51L046L458J655n33j328q09m5L71M04
1876d076631J54j16l2L83P56J037J409J497O20q01j216jJ433J537P27M45Q04O96
1858d067299k4j40R16K008J903Q49j20n69o60l98K69R39J055N83k1l29j08O11
1840d060535J310J249M39j30L03J198J446Q42R5l07m89n27k37K41L30j64o46m32
1822d056014M39J314J594J180M03k88o29o29l62J09N65O96N84P20J255J652J542
1805d045869J438J865K219J479q2r80m78N16Q67O09L82L10J57N5L30P96R10N00
1787d034976r3m71m54l3O09J114J226R81N69K11J69M65O24J80m78n16J4J06n17
1768d031270p17K88J435J212j7n14L28J332J467J039O31Q2q00j376q84M17J439
1751d025908J460P46K00N79J738K582K175Q90m6k00k49n26l28P48J766J663P91
1734d011919K29J24j04l49M7Q27Q25k15j080p92Q2N18M50M09M99N31O23Q57Q24
1715d007614L64K34J036J894J439p6r06k63O36M36n57j104o54N06J930K974K708
1698c997017R49j031j711j040j10N22J124J614J366M35j39K86J143J657J768J611
1682c988573Q98l42j177q15J25L42l79r59n72M40J279J633J618J304O70j60q10
1665c985478p96J17J432K039J309Om69J77P31J78q48r46Q8R83Q17K25L38J053
1647c979044J263O12M1L03Q26P11J53k7K00J56j95j59L69O10K87J55O54J088Q37
1628c971160M10M19M12j53o12p1Q89R70L39M40J683K753K552J468L29o03j104
1611c961039o54N86J466J330R30J063J169L07j067j526o13O43J132P74J60j92
1595c955531j37J01J20k13n20m16k5L02N58R67J467J748J664J317Q33L72J74K80
1577c946939L99L00J49J72K77L53N82J049J344J014J93o14j108j102l86P73J410
1560c942134R18nk42J51K09k42l05M54J247J288Q38N38M20K13J2L9J78K12K59
1541c935952M76P15Q17Q97R50O47j9l95k8N46N70K19K19N89P05M61M03N76K79
1522c927325n99r50J08J787K533J970J070N61J66l89o31j59M45L85j08j12M84
1505c920764P36J33n16k45O14R33M56N4K93O26L84j64k75J30N51Q62J388K022
1487c912782K067J310N65N95R95Q38J93M6O78J018J34j305j787q80L49P19K10
1470c907037k80M0J168K235K136O82r06j133L0J133J152O66P64J401J622R89N9
1453c895279m78m99k55OJ29R4N4J16J34l4k17j90n0M7L19J028J808J974J506J120
1433c888667J158J044K34p46q47O6R14P50j3j40P54J666J537O15o7k35m47p44
1415c883168l52Q41J658J254L98J81K81k05r13p58N3K97m6K76J379J675N06m89
1397c877132J49J435J628R36P56J095P62k67o14J73Q61O01K03O20J339J262M04
1380c865789k69k72J3J47J23N8m6j32k0L52Q07J148J356J492J452R96J40o00o45
1361c859689r0L51K79J31M46J036J341J264J095P84J11n47l95N63J185O09m89
1344c852015o50N16J788J761M75o58n25L84O59j61r11l66J014J598P14n04o45
1327c847526L22J302J535J214Q16M53N7j88Q6Q70J546J464P70L13N90J051Q48
1310c834477O5l31K02J059J282P14kl01k39k21m73q20q81m71K35Q58J141J023
1292c831637O03J71J17N16Q68O26k1k77K38R39J018M25j69k39J03M82P73J033
1274c824431J156R20M64L89J038J891K028J172q5j074j559j429n83N66J135Q03
1258c817599L09L52N89L95O3L25J003J216P55K32n5l56n15QR40J203N73K08Q77
1239c809477J768J843J442J413J491P35o81j462r03K72R79R47O11M26M93O37O55
1222c798811N98O41O37K36l62l18O56J544J198l0o58N3J282J791J277L87j64l09
1204c790352m83q64q74R3J457J780O73l99jJ363K127J824J195N97k18r44p87L7
1186c783776L03l58q03j93P44J044R81J260J624J352O39L21M97M79L2j98K91J131
1168c774630J561J302P49M69N44M81q1o11k55P97J273N39m15m10K55M95K71M96
1150c767170J365J940J633J010P53O94L54j90m94l44J59P69J101R40O90R79J637
1133c754174J731R64K79M82J009Q65K27R1N60O75Ln86j89Q70J494J105O7q16q66
1114c746209L6J218J657J035J32p0N54J314J535J068K57l22k81J56L50J29P8O41
1096c736722J346J454J055R08J335J908K132J857J121J61m46l23P9M3k94j37O23
1079c723900J190J164J079J271J173L81m44m74J66Q31J259J312O09o76j294l60
1063c716713J175J695J165R35J466J779J308P95P75N23n88j661j312L26J703J792
1047c704837J137Q66J260J539R77m7l30O80J972K023O38q24j085k19P89J217J070
1030c693174P96Q30J186J428J303J192J446J579Q72k86o98q2M96K93q4J51P05
1013c682047Q39N31K52J67K88Q31J657J911J042k01n76J60J267K134K640K624
997c666481J945R65L77M05O62O81L40j21k56J26N11K89r3M73J868K472J503L99
979c653935O36J368Q91m24o47O42J798J702J002N11J06l15l09N9Q7j33L92J672
961c644897K259J481O24R00J631J592R38N32M44M10P78J608J824P60l14P6J158
944c628196J101J69L89K106L152K086K67l27K34O31N17N48R28J211J261J274J134
927c611515O24J68L96J039J103L35k67J84J223J670J204O87Q63J326J161L09k91
910c599781RP49J114J094J287J825K181K012J583J176P56M65P63J594J972J163
894c580038m9j79R58J912J588P29P74J758K274J462K13QJ077K270K477J686O51
877c560429N3J10N90R81Q59M04L09R88J938K200J468M10j11N8M05M94M03M34O83
858c547753J019J306J470J435J228J108J266J423J133N91N63J261J795J314K88
843c530553r8L61P27M62K04O76J549J986J778J376J192J362J875K433K401J466
827c510803K30l21P9P59R59O05K13L27J042J899K292K078J681J527J537J381R62
810c493553N22L85P50J474K015J896J362J217J802K506K513J720O61k5J29J151
794c473475K305K535J658O72N12J010J523J859J959J428K47n91j91Q86J405J210
778c455048J179J624J941J809J612J548J356J064J061J288J240R39R25J225J310
763c434927J248J726K626K788J723M84J87N94Q23O28L05J29M69J648L058L290
747c413201J959N32M77J364J743J269Q00R12J355J777K042K045J915K081K513
732c390417K434J530P96J194K036J955R90L82N65P83P05R12J546J867J582J453
716c369687J948K411K215J851J996K307K006J234Q88J307J922K129J938J648J378
701c342509J087Q26P39Q41R37R29J024J442J915J989J822K043K585K449J268K58
685c320355O71J898K340J765J344J522J479R56R40J813K300J393J72L64J834K848
669c296716K523J683J332J435J521J585J843K102J927J341R71J313K014K228J799
654c271099J648K460L409L076J572O36J330K600K837J966J176J151J492J571J227
639c242948P64P65J628K777K941J763O20R97K475L355K887J891J294J192J397
624c216202J819K101J785J200J305K264L028K784K108K027K493K564J764O57J27
609c188176N27J513K408K692K357J822J482J439J628J959K268K389K323K160J859
594c159350J425J210J645K546L150K988K349J804J601J745K173K610K644K250
580c129210J921J995K149J986J712J786K080J983J378R42J324K328L174L331K858
565c098263K056J156M44L50J029J961K403K341K510L240L774L316K266J699J830
550c067888J924J695J768K463L099L050K711K670K610J983J250J363K173K467
536c036662J758J033J302K188K562K119J634J847K654L384L487K896K016J508
522c006274J840K828L642L486K420J393J326K133K876K893K480K286K370K282
508b972019J953J902K429L066L159K702K225K019J916J788J854K294K860L128
494b938724L019K790K630K521K463K538K654K550K202J953K047K242K199K030
480b904886K114K479K739K647K339K046J882J918K149K380K441K481K686K830
466b871755K632K439K870L698L914L185K410K338K474K097J619J934K890L498
452b833757L449L321L351L108K484K056K061J996J608J450J965K765L317L691
438b797135M020L858K870J646J141J513K190K753L127L121K615K085K152K633
424b761411K730K219J825K159K943L495L536L227K773K396K339K654L110L454
410b722551L572L393K936K516K488K732K763K492K376K651K912K842K775L056
396b683047L359L197K806K734K842K521J840J673K430L461L940L807L455L063
382b641919K697K626K957L278L111K610K345K538K956L374L717L817L497K944
368b599452K596K567K554K360K187K331K827L444L765L404K497J904K418L633
354b560965M203L472K313J982K562L114L039K642K429K474K643K951L344L473
340b520324L062K403K193K710L428L626L274L012L234L554L434L002K837L150
326b477405L633M030M319M307L723K824K296K349K498K480K665L160L331K857
312b432933K521L052L832L777L105K991L639L947L329K604K711L392L768L489
298b386776K822K169J939K379L119L392L012K622K686K892K892K987L535M240
284b346090M530M254L569K663J993K202L221M062M044L607L399L256K843K604
270b299843L061L742L878L670L751L824L134K071J914K887L821L916L657L591
256b252926L493L167K969L000K784K355K576L693M566M210L279K972L281L348
242b207233L034K932L173L295L176L106L072K840K734L359M482N093M726L987
228b158224L544L347L097K889K960L276L649L919L841L217K354J964K361L093
214b114713L600L855M060M166M074L925L807L424K620K014K429L677M533M216
200b064313L368L148L673M030L664L062K852K922K897K946L390L878L781L300
186b017402L357M159M821M672M157L925L776L268K736K829L359L526L150K841
172a966826K984L310L559L792L956L779L319L021L096L295L473L752M009L808
158a917673L127K615K760L258L537L520L552L818M203M446M321L858L476L523
144a867659L747L660L398L580M179M389L888L389L419L427K810K145K367L218
130a820043L623L354L248L706M076L790L251L169L589M013M061L719L225L028
116a770191L474M262M560L951L055K817L357L856L594K825K499L172M333M904
102a719532M390L387K898L298M103M553M250L448K863L052L720L976L482L013
88a669099L384M169M249L437K762K979L601L793L561L509L823M108M045L731L377
73a614571L115L076L351L760L947L766L510L591M083M611M716M319L730L267K994
58a558735K894L035L389L689L741L753L980M222M072L585L267L342L504L458L272
43a505532L067K815K618K762L291L863M204M365M399M202L880L776L910L858L478
28a451044L288L691M309M491M148L629L176K967L248L910M278L907L235K860K716
13a397191K587K950M215N535N545M302L245L159L376L295L342L814L967
0a347859
##END NTUPLES=NMR SPECTRUM
##END=
