##TITLE=
##JCAMPDX= 6.0         $$ Bruker NMR JCAMP-DX V2.0
##DATA TYPE= NMR SPECTRUM
##DATA CLASS= NTUPLES
##ORIGIN= Bruker BioSpin GmbH
##OWNER= nmrsu
##LONG DATE= 2023/07/06 18:19:40+0000
$$ TopSpin 4.1.4
$$ 2023-07-06 20:19:34.138 +0200  nmrsu@nmrf492r
$$ Compression mode = diff/dup
##.OBSERVE FREQUENCY= 100.6228302769
##.OBSERVE NUCLEUS= ^13C
##.ACQUISITION MODE= SIMULTANEOUS (DQD)
##.ACQUISITION SCHEME= undefined
##.AVERAGES= 256
##.DIGITISER RES= 32
##SPECTROMETER/DATA SYSTEM= AV4 400 MHZ
##.PULSE SEQUENCE= zgpg30
##.SOLVENT NAME= CDCl3
##.SHIFT REFERENCE= INTERNAL, CDCl3, 1, 218.3226
##AUDIT TRAIL= $$ (NUMBER, WHEN, WHO, WHERE, PROCESS, VERSION, WHAT)
$$ ##TITLE= Audit trail, TopSpin 4.1.4
$$ ##JCAMPDX= 5.01
$$ ##ORIGIN= Bruker BioSpin GmbH
$$ ##OWNER= nmrsu
$$ $$ /opt/data/apprentis.isic@epfl.ch/nmr/9b088efaa05c_reference_110-43-0/2/pdata/1/auditp.txt
$$ ##AUDIT TRAIL=  $$ (NUMBER, WHEN, WHO, WHERE, PROCESS, VERSION, WHAT)
(   1,<2023-07-06 18:04:43.744 +0000>,<nmrsu>,<nmrf492r>,<go4>,<TopSpin 4.1.4>,
      <acquisition in progress>)
$$ $$ /opt/data/apprentis.isic@epfl.ch/nmr/9b088efaa05c_reference_110-43-0/2/audita.txt
(   2,<2023-07-06 18:19:40.861 +0000>,<nmrsu>,<nmrf492r>,<go4>,<TopSpin 4.1.4>,
      <created by zg on 'AV4 400 MHZ' (nmrf492r) by user 'nmrsu'
       on data set with UUID '95bd2cac-1c27-11ee-96fc-00139526683c'
       started at 2023-07-06 18:04:43.755 +0000, POWCHK enabled, PULCHK disabled,
       completed at 2023-07-06 18:19:40.859 +0000
       configuration hash MD5:
       CD 8D D6 62 70 46 CF 44 22 D8 1D DE BA 17 57 A5
       double data hash MD5: 64K
       70 F4 AA A4 C6 C3 04 2C A0 9F 9B 09 7C 52 0E 55>)
(   3,<2023-07-06 20:19:32.617 +0200>,<nmrsu>,<nmrf492r>,<xwish3>,<TopSpin 4.1.4>,
      <ICON-NMR User ID: apprentis.isic@epfl.ch
       double data hash MD5: 64K
       70 F4 AA A4 C6 C3 04 2C A0 9F 9B 09 7C 52 0E 55>)
(   4,<2023-07-06 20:19:33.351 +0200>,<nmrsu/apprentis.isic@epfl.ch>,<nmrf492r>,<proc1d>,<TopSpin 4.1.4>,
      <Start of raw data processing
       ef LB = 0.3 FT_mod = 6 PKNL = 1 SI = 64K 
       data hash MD5: 64K
       1C 41 59 2F 49 76 A6 0D 18 B0 3B 38 1C F1 F0 85>)
(   5,<2023-07-06 20:19:33.877 +0200>,<nmrsu/apprentis.isic@epfl.ch>,<nmrf492r>,<proc1d>,<TopSpin 4.1.4>,
      <apk0 
       data hash MD5: 64K
       10 8A 9F 39 D9 34 04 00 C4 08 72 E9 62 44 92 14>)
(   6,<2023-07-06 20:19:33.960 +0200>,<nmrsu/apprentis.isic@epfl.ch>,<nmrf492r>,<proc1d>,<TopSpin 4.1.4>,
      <abs ABSG = 5 
       data hash MD5: 64K
       16 CE 77 DF BD BA 2B AD 84 AE 97 FE 77 B6 92 DD>)
(   7,<2023-07-06 20:19:33.986 +0200>,<nmrsu/apprentis.isic@epfl.ch>,<nmrf492r>,<peak>,<TopSpin 4.1.4>,
      <1D Peak picking
       data hash MD5: 64K
       16 CE 77 DF BD BA 2B AD 84 AE 97 FE 77 B6 92 DD>)
(   8,<2023-07-06 20:19:34.039 +0200>,<nmrsu/apprentis.isic@epfl.ch>,<nmrf492r>,<xwish3>,<TopSpin 4.1.4>,
      <ICON-NMR User ID: apprentis.isic@epfl.ch
       data hash MD5: 64K
       16 CE 77 DF BD BA 2B AD 84 AE 97 FE 77 B6 92 DD>)
$$ ##END=
$$ 
$$ $$ hash MD5
$$ $$ C9 A8 60 F4 91 FD 1B DC AC A9 E8 15 C2 C1 36 F0
##$RELAX= 
##$BRUKER FILE EXP=format.temp
$$ EDIT_PAR COMMAND FILE
$$ 
$$ DI_MODE         LONG
$$ ED_ENTRY        ACQU
$$ ORDER           FILE
$$ 
$$ 
$$ HEADER		"F2 - Acquisition Parameters"
$$ T_NAME		Date_
$$ 		TYPE	R64
$$ 		CLASS	ACQU
$$ 		SUBRANGE 0.0 50000000
$$ 		REL	"Date_=itodate(DATE)"
$$ 		INV_REL	"DATE=datetoi(Date_,DATE)"
$$ 		FORMAT	"%14.0f"
$$ 		TEXT	" "
$$ END
$$ T_NAME		Time
$$ 		TYPE	R32
$$ 		CLASS	ACQU
$$ 		SUBRANGE 0.0 1000000
$$ 		REL	"Time=itotime(DATE)"
$$ 		INV_REL	"DATE=timetoi(Time,DATE)"
$$ 		FORMAT	"%14.2f h"
$$ 		TEXT	" "
$$ END
$$ NAME		INSTRUM
$$ 		TEXT	" "
$$ END
$$ NAME		PROBHD
$$ 		FORMAT	"%14.14s"
$$ 		TEXT	" "
$$ END
$$ NAME		PULPROG
$$ 		TEXT	" "
$$ END
$$ NAME		TD
$$ 		TEXT	" "
$$ END
$$ NAME		SOLVENT
$$ 		TEXT	" "
$$ END
$$ NAME		NS
$$ 		TEXT	" "
$$ END
$$ NAME		DS
$$ 		TEXT	" "
$$ END
$$ T_NAME		SWH
$$ 		TYPE	R32
$$ 		CLASS	ACQU
$$ 		SUBRANGE 0.0 1e8
$$ 		REL	"SWH=SW*SFO1"
$$ 		INV_REL "SW=SWH/SFO1"
$$ 		UNIT	"Hz"
$$ 		FORMAT	"%14.3f Hz"
$$ 		TEXT	" "
$$ END
$$ T_NAME          FIDRES
$$                 TYPE    R32
$$                 CLASS   ACQU
$$                 SUBRANGE 0.0 100000
$$                 REL     "FIDRES=2*SW*SFO1/TD"
$$                 INV_REL "TD = nextpow(2*SW*SFO1/FIDRES)"
$$ 		UNIT	"Hz"
$$ 		FORMAT	"%14.6f Hz"
$$ 		TEXT	" "
$$ END
$$ T_NAME          AQ
$$ 		TYPE	R32
$$ 		CLASS	ACQU
$$ 		SUBRANGE 0.0 1000
$$ 		REL	"AQ=aqcalc(SW,SFO1,TD,DIGTYP)"
$$ 		INV_REL	"TD=tdcalc(SW,SFO1,1.0e6*AQ,DIGTYP)"
$$ 		UNIT	"sec"
$$ 		FORMAT	"%14.7f sec"
$$ 		TEXT	" "
$$ END
$$ NAME		RG
$$ 		TEXT	" "
$$ END
$$ T_NAME          DW
$$ 		TYPE	R32
$$ 		CLASS	ACQU
$$ 		SUBRANGE 0.0 1000000
$$ 		REL	"DW=1/(2*SW*SFO1)"
$$ 		INV_REL	"SW=1000000/(2*(0.005+DW)*SFO1)"
$$ 		UNIT	"usec"
$$ 		FORMAT	"%14.3lf usec"
$$ 		TEXT	" "
$$ END
$$ NAME		DE
$$ 		FORMAT	"%14.2f usec"
$$ 		TEXT	" "
$$ END
$$ NAME		TE
$$ 		FORMAT	"%14.1f K"
$$ 		TEXT	" "
$$ END
$$ T_NAME		D1
$$ TYPE	R32
$$ CLASS	ACQU
$$ SUBRANGE 0.0 1e38
$$ REL	"D1=D[1]"
$$ INV_REL	"D[1]=D1"
$$ UNIT	"sec"
$$ FORMAT	"%14.8f sec"
$$ TEXT	" "
$$ END
$$ T_NAME		D11
$$ TYPE	R32
$$ CLASS	ACQU
$$ SUBRANGE 0.0 1e38
$$ REL	"D11=D[11]"
$$ INV_REL	"D[11]=D11"
$$ UNIT	"sec"
$$ FORMAT	"%14.8f sec"
$$ TEXT	" "
$$ END
$$ NAME		TD0
$$ 		TEXT	" "
$$ END
$$ NAME		SFO1
$$ FORMAT	"%14.7f MHz"
$$ TEXT	" "
$$ END
$$ NAME		NUC1
$$ NONEDIT
$$ TEXT	" "
$$ END
$$ T_NAME		P0
$$ TYPE	R32
$$ CLASS	ACQU
$$ SUBRANGE 0.0 1.0e10
$$ REL	"P0=P[0]"
$$ INV_REL	"P[0]=P0"
$$ UNIT	"usec"
$$ FORMAT	"%14.2f usec"
$$ TEXT	" "
$$ END
$$ T_NAME		P1
$$ TYPE	R32
$$ CLASS	ACQU
$$ SUBRANGE 0.0 1.0e10
$$ REL	"P1=P[1]"
$$ INV_REL	"P[1]=P1"
$$ UNIT	"usec"
$$ FORMAT	"%14.2f usec"
$$ TEXT	" "
$$ END
$$ T_NAME		PLW1
$$ TYPE	R32
$$ CLASS	ACQU
$$ REL	"PLW1=PLW[1]"
$$ INV_REL	"PLW[1]=PLW1"
$$ UNIT	"W"
$$ FORMAT	"%14.8f W"
$$ TEXT	"power PLW1 "
$$ END
$$ NAME		SFO2
$$ FORMAT	"%14.7f MHz"
$$ TEXT	" "
$$ END
$$ NAME		NUC2
$$ NONEDIT
$$ TEXT	" "
$$ END
$$ NAME		CPDPRG[2]
$$ TEXT	" "
$$ END
$$ T_NAME		PCPD2
$$ TYPE	R32
$$ CLASS	ACQU
$$ SUBRANGE 0 1e38
$$ REL	"PCPD2=PCPD[2]"
$$ INV_REL	"PCPD[2]=PCPD2"
$$ UNIT	"usec"
$$ FORMAT	"%14.2f usec"
$$ TEXT	" "
$$ END
$$ T_NAME		PLW2
$$ TYPE	R32
$$ CLASS	ACQU
$$ REL	"PLW2=PLW[2]"
$$ INV_REL	"PLW[2]=PLW2"
$$ UNIT	"W"
$$ FORMAT	"%14.8f W"
$$ TEXT	"power PLW2 "
$$ END
$$ T_NAME		PLW12
$$ TYPE	R32
$$ CLASS	ACQU
$$ REL	"PLW12=PLW[12]"
$$ INV_REL	"PLW[12]=PLW12"
$$ UNIT	"W"
$$ FORMAT	"%14.8f W"
$$ TEXT	"power PLW12 "
$$ END
$$ T_NAME		PLW13
$$ TYPE	R32
$$ CLASS	ACQU
$$ REL	"PLW13=PLW[13]"
$$ INV_REL	"PLW[13]=PLW13"
$$ UNIT	"W"
$$ FORMAT	"%14.8f W"
$$ TEXT	"power PLW13 "
$$ END
##$RELAX= 
##$BRUKER FILE EXP=scon2
$$ ##TITLE= Parameter file, TopSpin 4.1.4
$$ ##JCAMPDX= 5.0
$$ ##DATATYPE= Parameter Values
$$ ##NPOINTS= 1	$$ modification sequence number
$$ ##ORIGIN= Bruker BioSpin GmbH
$$ ##OWNER= nmrsu
$$ $$ 2023-07-06 20:04:35.269 +0200  nmrsu@nmrf492r
$$ $$ /opt/data/apprentis.isic@epfl.ch/nmr/9b088efaa05c_reference_110-43-0/2/scon2
$$ $$ process /opt/topspin4.1.4/prog/mod/acqdataserver
$$ ##$BLKTR= (0..32)
$$ 3 3 3 3 3 3 3 3 3 3 3 3 3 3 3 3 3 3 3 3 3 3 3 3 3 3 3 3 3 3 3 3 3
$$ ##$DE1= 4.5
$$ ##$DEADC= 0.5
$$ ##$DEPA= 4.5
$$ ##$DERX= 1.5
$$ ##$GRADPRE= (0..1)
$$ 10 10
$$ ##$HD_BLKTR= (0..32)
$$ 1 1 1 1 1 1 1 1 1 1 1 1 1 1 1 1 1 1 1 1 1 1 1 1 1 1 1 1 1 1 1 1 1
$$ ##$HD_DE1= 5
$$ ##$HD_DEADC= 0
$$ ##$HD_DEPA= 2.5
$$ ##$HD_DERX= 0
$$ ##END=
##$RELAX= 
##$BRUKER FILE EXP=prosol_History
##$RELAX= 
##$BRUKER FILE EXP=shimvalues
$$ # Thu Jul  6 18:19:39 2023
$$ #$$PROBEIDENTIFIER=Z108618_0808
$$ #$$PROBENAME=PA BBO 400S1 BBF-H-D-05 Z
$$ #$$SHIMID=313232
$$ #
$$ # Active Shim Gradients
$$ #
$$ Z           		8646            
$$ Z2          		4461            
$$ Z3          		-922            
$$ Z4          		-7611           
$$ Z5          		4394            
$$ Z6          		24877           
$$ X           		-10762          
$$ XZ          		-1407           
$$ XZ2         		-800            
$$ XZ3         		2230            
$$ Y           		3513            
$$ YZ          		19923           
$$ YZ2         		27262           
$$ YZ3         		-7930           
$$ XY          		-612            
$$ XYZ         		10082           
$$ (X2-Y2)     		-22912          
$$ (X2-Y2)Z    		8771            
$$ X3          		-1763           
$$ Y3          		2664            
$$ #
$$ # Lock Parameter
$$ #
$$ FIELD		6784.251
$$ LOCKPHASE		 341.100
$$ LOCKPOWER		 -30.000
$$ LOCKGAIN		 132.368
$$ LOCKDC		 -75.000
$$ LOCKSHIFT		   7.240
$$ LOOPGAIN		 -12.000
$$ LOOPTIME		   0.400
$$ LOOPFILTER		 100.000
$$ #
$$ IEEE64_VERSION_CODE 1
$$ #
$$ # Shim currents 
$$ #
$$ SHIM_SETTING [ 1]     4193.09088417
$$ SHIM_SETTING [ 2]     2208.14684496
$$ SHIM_SETTING [ 3]     -484.78157161
$$ SHIM_SETTING [ 4]    -4003.64485792
$$ SHIM_SETTING [ 5]     2311.02000463
$$ SHIM_SETTING [ 6]    -5660.81199997
$$ SHIM_SETTING [ 7]     -740.08200000
$$ SHIM_SETTING [ 8]     -420.80000000
$$ SHIM_SETTING [ 9]   -12051.71199993
$$ SHIM_SETTING [10]     -321.91200000
$$ SHIM_SETTING [11]     1847.83799999
$$ SHIM_SETTING [12]    10479.49799994
$$ SHIM_SETTING [13]    14339.81199992
$$ SHIM_SETTING [14]    -4171.18099998
$$ SHIM_SETTING [15]    13085.14658007
$$ SHIM_SETTING [16]     4613.28699997
$$ SHIM_SETTING [17]     1173.08999999
$$ SHIM_SETTING [18]     5303.07899997
$$ SHIM_SETTING [19]     -927.57899999
$$ SHIM_SETTING [20]     1401.22599999
##$RELAX= 
##$BRUKER FILE EXP=uxnmr.par
$$ ##TITLE= Parameter file, TopSpin 4.1.4
$$ ##JCAMPDX= 5.0
$$ ##DATATYPE= Parameter Values
$$ ##NPOINTS= 2	$$ modification sequence number
$$ ##ORIGIN= Bruker BioSpin GmbH
$$ ##OWNER= root
$$ $$ 2022-02-07 06:59:35.571 +0000  root@BladeEpu
$$ $$ /opt/topspin/conf/instr/spect/uxnmr.par
$$ $$ process /opt/topspin/prog/mod/hconfserver
$$ ##$ACBTAT= (0..64)
$$ 0 66 72 50 0 0 0 0 0 0 0 0 0 0 0 0 0 0 0 0 0 0 0 0 0 0 0 0 0 0 0 0 0 0
$$ 0 0 0 0 0 0 0 0 0 0 0 0 0 0 0 0 0 0 0 0 0 0 0 0 0 0 0 0 0 0 0
$$ ##$ACBTBLK= (0..64)
$$ 0 34 33 41 0 0 0 0 0 0 0 0 0 0 0 0 0 0 0 0 0 0 0 0 0 0 0 0 0 0 0 0 0 0
$$ 0 0 0 0 0 0 0 0 0 0 0 0 0 0 0 0 0 0 0 0 0 0 0 0 0 0 0 0 0 0 0
$$ ##$ACBTCTL= (0..64)
$$ 0 6 6 6 0 0 0 0 0 0 0 0 0 0 0 0 0 0 0 0 0 0 0 0 0 0 0 0 0 0 0 0 0 0 0 0
$$ 0 0 0 0 0 0 0 0 0 0 0 0 0 0 0 0 0 0 0 0 0 0 0 0 0 0 0 0 0
$$ ##$ACBTDI= (0..64)
$$ 0 -1062706420 -1062706420 -1062706421 0 0 0 0 0 0 0 0 0 0 0 0 0 0 0 0 0
$$ 0 0 0 0 0 0 0 0 0 0 0 0 0 0 0 0 0 0 0 0 0 0 0 0 0 0 0 0 0 0 0 0 0 0 0 0
$$ 0 0 0 0 0 0 0 0
$$ ##$ACBTDM= (0..64)
$$ 0 10 25 10 0 0 0 0 0 0 0 0 0 0 0 0 0 0 0 0 0 0 0 0 0 0 0 0 0 0 0 0 0 0
$$ 0 0 0 0 0 0 0 0 0 0 0 0 0 0 0 0 0 0 0 0 0 0 0 0 0 0 0 0 0 0 0
$$ ##$ACBTFHI= (0..64)
$$ 0 600 600 62 0 0 0 0 0 0 0 0 0 0 0 0 0 0 0 0 0 0 0 0 0 0 0 0 0 0 0 0 0
$$ 0 0 0 0 0 0 0 0 0 0 0 0 0 0 0 0 0 0 0 0 0 0 0 0 0 0 0 0 0 0 0 0
$$ ##$ACBTFL= (0..64)
$$ 0 248 248 8 0 0 0 0 0 0 0 0 0 0 0 0 0 0 0 0 0 0 0 0 0 0 0 0 0 0 0 0 0 0
$$ 0 0 0 0 0 0 0 0 0 0 0 0 0 0 0 0 0 0 0 0 0 0 0 0 0 0 0 0 0 0 0
$$ ##$ACBTFLO= (0..64)
$$ 0 15 180 60 0 0 0 0 0 0 0 0 0 0 0 0 0 0 0 0 0 0 0 0 0 0 0 0 0 0 0 0 0 0
$$ 0 0 0 0 0 0 0 0 0 0 0 0 0 0 0 0 0 0 0 0 0 0 0 0 0 0 0 0 0 0 0
$$ ##$ACBTINP= (0..64)
$$ 0 2 1 9 0 0 0 0 0 0 0 0 0 0 0 0 0 0 0 0 0 0 0 0 0 0 0 0 0 0 0 0 0 0 0 0
$$ 0 0 0 0 0 0 0 0 0 0 0 0 0 0 0 0 0 0 0 0 0 0 0 0 0 0 0 0 0
$$ ##$ACBTOUT= (0..64)
$$ 0 0 3 1 0 0 0 0 0 0 0 0 0 0 0 0 0 0 0 0 0 0 0 0 0 0 0 0 0 0 0 0 0 0 0 0
$$ 0 0 0 0 0 0 0 0 0 0 0 0 0 0 0 0 0 0 0 0 0 0 0 0 0 0 0 0 0
$$ ##$ACBTPO= (0..64)
$$ 0 500000 100000 5000 0 0 0 0 0 0 0 0 0 0 0 0 0 0 0 0 0 0 0 0 0 0 0 0 0
$$ 0 0 0 0 0 0 0 0 0 0 0 0 0 0 0 0 0 0 0 0 0 0 0 0 0 0 0 0 0 0 0 0 0 0 0 0
$$ ##$ACBTPW= (0..64)
$$ 0 100 100 1000 0 0 0 0 0 0 0 0 0 0 0 0 0 0 0 0 0 0 0 0 0 0 0 0 0 0 0 0
$$ 0 0 0 0 0 0 0 0 0 0 0 0 0 0 0 0 0 0 0 0 0 0 0 0 0 0 0 0 0 0 0 0 0
$$ ##$ACBTSB= (0..64)
$$ 0 8227 8260 0 0 0 0 0 0 0 0 0 0 0 0 0 0 0 0 0 0 0 0 0 0 0 0 0 0 0 0 0 0
$$ 0 0 0 0 0 0 0 0 0 0 0 0 0 0 0 0 0 0 0 0 0 0 0 0 0 0 0 0 0 0 0 0
$$ ##$ACBTSDT= (0..64)
$$ 0 2 2 2 0 0 0 0 0 0 0 0 0 0 0 0 0 0 0 0 0 0 0 0 0 0 0 0 0 0 0 0 0 0 0 0
$$ 0 0 0 0 0 0 0 0 0 0 0 0 0 0 0 0 0 0 0 0 0 0 0 0 0 0 0 0 0
$$ ##$AMPDFLT= no
$$ ##$AdmCrpWbWiring= (0..1)
$$ 0 0
$$ ##$AppEth= <no>
$$ ##$AppPort= <no>
$$ ##$BACSAIR= yes
$$ ##$BACSCAP= 0
$$ ##$BACSDEL= 10
$$ ##$BACSFCM= no
$$ ##$BACSOPT= <>
$$ ##$BACSTY= <no>
$$ ##$BFREQ= 400.13
$$ ##$BGAETH= (0..9)
$$ <no> <no> <no> <no> <no> <no> <no> <no> <no> <no>
$$ ##$BIRDS= yes
$$ ##$BMPC= 0
$$ ##$BMPCTY= <no>
$$ ##$BPSUTY= <no>
$$ ##$BSAETH= (0..9)
$$ <no> <no> <no> <no> <no> <no> <no> <no> <no> <no>
$$ ##$BSMS= 2
$$ ##$BSMS19FLock= no
$$ ##$BSMSETH= <192.168.99.11>
$$ ##$BgaChFac2= (0..9)
$$ 0 0 0 0 0 0 0 0 0 0
$$ ##$BgaChMap= (0..9)
$$ 0 0 0 0 0 0 0 0 0 0
$$ ##$BgaChMaxv= (0..9)
$$ 0 0 0 0 0 0 0 0 0 0
$$ ##$BgaChRouting= (0..63)
$$ 0 0 0 0 0 0 0 0 0 0 0 0 0 0 0 0 0 0 0 0 0 0 0 0 0 0 0 0 0 0 0 0 0 0 0 0
$$ 0 0 0 0 0 0 0 0 0 0 0 0 0 0 0 0 0 0 0 0 0 0 0 0 0 0 0 0
$$ ##$BgaChShimMap= (0..9)
$$ 0 0 0 0 0 0 0 0 0 0
$$ ##$BgaChShimMaxv= (0..9)
$$ 0 0 0 0 0 0 0 0 0 0
$$ ##$BlaEth= (0..31)
$$ <192.168.99.12> <192.168.99.11> <no> <no> <no> <no> <no> <no> <no> <no>
$$ <no> <no> <no> <no> <no> <no> <no> <no> <no> <no> <no> <no> <no> <no> <no>
$$ <no> <no> <no> <no> <no> <no> <no>
$$ ##$BlaHpLpViaTTL= (0..31)
$$ 0 0 0 0 0 0 0 0 0 0 0 0 0 0 0 0 0 0 0 0 0 0 0 0 0 0 0 0 0 0 0 0
$$ ##$BlaNam= (0..31)
$$ <AV4 BLABBH500/100 200-600> <BSMS/2 LOCK TRANSCEIVER 400> <> <> <> <> <>
$$ <> <> <> <> <> <> <> <> <> <> <> <> <> <> <> <> <> <> <> <> <> <> <> <>
$$ <>
$$ ##$BlaPN= (0..31)
$$ <W144061> <Z109888> <> <> <> <> <> <> <> <> <> <> <> <> <> <> <> <> <>
$$ <> <> <> <> <> <> <> <> <> <> <> <> <>
$$ ##$BlaSN= (0..31)
$$ <000093> <02329> <> <> <> <> <> <> <> <> <> <> <> <> <> <> <> <> <> <>
$$ <> <> <> <> <> <> <> <> <> <> <> <>
$$ ##$BmuEth= <no>
$$ ##$BmuFw= <no>
$$ ##$BmuPn= <no>
$$ ##$BmuSn= <no>
$$ ##$BnlEth= <no>
$$ ##$BnlFw= <no>
$$ ##$BnlPn= <no>
$$ ##$BnlSn= <no>
$$ ##$BpduEth= (0..7)
$$ <no> <no> <no> <no> <no> <no> <no> <no>
$$ ##$BsaChMap1= (0..9)
$$ 0 0 0 0 0 0 0 0 0 0
$$ ##$BsaChMap2= (0..9)
$$ 0 0 0 0 0 0 0 0 0 0
$$ ##$BsaChShimMaxv= (0..9)
$$ 0 0 0 0 0 0 0 0 0 0
$$ ##$BsmsAuxEth= <no>
$$ ##$BsmsLockNuclei= (0..15)
$$ <2H> <no> <no> <no> <no> <no> <no> <no> <no> <no> <no> <no> <no> <no> <no>
$$ <no>
$$ ##$CPDBTY= <no>
$$ ##$CRCOTY= <no>
$$ ##$CSW1= (0..31)
$$ 2 1 9 0 0 0 0 0 0 0 0 0 0 0 0 0 0 0 0 0 0 0 0 0 0 0 0 0 0 0 0 0
$$ ##$CSW2= (0..31)
$$ 0 0 0 0 0 0 0 0 0 0 0 0 0 0 0 0 0 0 0 0 0 0 0 0 0 0 0 0 0 0 0 0
$$ ##$CSWNUM= (0..15)
$$ 2 1 0 0 0 0 0 0 0 0 0 0 0 0 0 0
$$ ##$ConsolePnSn= <HCAB-40 / 57>
$$ ##$CryoCoolUnitEth= <no>
$$ ##$CryoCoolUnitFw= <no>
$$ ##$CryoCoolUnitPn= <no>
$$ ##$CryoCoolUnitSn= <no>
$$ ##$CryoProAccPnSn= <>
$$ ##$Ctb1Eth= <no>
$$ ##$CustRegisterNo= <>
$$ ##$DATSTAT= no
$$ ##$DPPFAC= 1
$$ ##$DRU= no
$$ ##$DateTimeCreated= <2022-02-07T06:58:43+0000>
$$ ##$Description= <AV4 400 MHZ>
$$ ##$DppType= 0
$$ ##$DrxFiltGrpDel= (0..23)
$$ <68,36,20,9,5,3,2> <68,36,20,9,5,3,2> <> <> <> <> <> <> <> <> <> <> <>
$$ <> <> <> <> <> <> <> <> <> <> <>
$$ ##$EcuType= 1
$$ ##$EpuMacAddress= <00:13:95:26:68:3c>
$$ ##$FCubeDrxDevice= (0..23)
$$ </dev/bbu/drx3.5> </dev/bbu/drx4.5> <> <> <> <> <> <> <> <> <> <> <> <>
$$ <> <> <> <> <> <> <> <> <> <>
$$ ##$FCubeEth= (0..23)
$$ <192.168.180.14> <192.168.180.18> <no> <no> <no> <no> <no> <no> <no> <no>
$$ <no> <no> <no> <no> <no> <no> <no> <no> <no> <no> <no> <no> <no> <no>
$$ ##$FCubeRtdDevice= (0..23)
$$ </dev/bbu/rtd3.4> </dev/bbu/rtd4.4> <> <> <> <> <> <> <> <> <> <> <> <>
$$ <> <> <> <> <> <> <> <> <> <>
$$ ##$FCubeSeqDevice= (0..23)
$$ <> <> <> <> <> <> <> <> <> <> <> <> <> <> <> <> <> <> <> <> <> <> <> <>
$$ ##$FGSVTY= <no>
$$ ##$FRONTTY= <no>
$$ ##$FUNCMOD= <>
$$ ##$FourPeriBdEth= <no>
$$ ##$FourShimBdEth= <no>
$$ ##$FourierPicsCon= no
$$ ##$FuncModBisDat= (0..7)
$$ 0 0 0 0 0 0 0 0
$$ ##$FuncModFRange= (0..7)
$$ <> <> <> <> <> <> <> <>
$$ ##$FuncModPN= (0..7)
$$ <> <> <> <> <> <> <> <>
$$ ##$FuncModSN= (0..7)
$$ <> <> <> <> <> <> <> <>
$$ ##$GCUTYPE= 20
$$ ##$GCubeEth= <192.168.180.38>
$$ ##$GCubeFpfAddr= (0..9)
$$ -1 -1 -1 -1 -1 -1 -1 -1 -1 -1
$$ ##$GCubeProcDevice= (0..1)
$$ </dev/bbu/gproc9.7> <no>
$$ ##$GCubeRtdDevice= (0..1)
$$ </dev/bbu/rtd9.4> <no>
$$ ##$GCubeSeqDevice= (0..1)
$$ <> <>
$$ ##$GCubeSpfAddr= (0..63)
$$ -1 -1 -1 -1 -1 -1 -1 -1 -1 -1 -1 -1 -1 -1 -1 -1 -1 -1 -1 -1 -1 -1 -1 -1
$$ -1 -1 -1 -1 -1 -1 -1 -1 -1 -1 -1 -1 -1 -1 -1 -1 -1 -1 -1 -1 -1 -1 -1 -1
$$ -1 -1 -1 -1 -1 -1 -1 -1 -1 -1 -1 -1 -1 -1 -1 -1
$$ ##$GPREDEL= 0
$$ ##$GPSCUTY= <no>
$$ ##$GRADRES= 1
$$ ##$Gctu2Eth= <no>
$$ ##$GcubeSaCtrEth= <no>
$$ ##$GradAmpMaxCurX= (0..10)
$$ 0 0 0 0 0 0 0 0 0 0 0
$$ ##$GradAmpMaxCurY= (0..10)
$$ 0 0 0 0 0 0 0 0 0 0 0
$$ ##$GradAmpMaxCurZ= (0..10)
$$ 9.99999904632568 0 0 0 0 0 0 0 0 0 0
$$ ##$GradAmpName= (0..9)
$$ <GAB in BSMS> <> <> <> <> <> <> <> <> <>
$$ ##$GradAmpPN= (0..9)
$$ <> <> <> <> <> <> <> <> <> <>
$$ ##$GradAmpSN= (0..9)
$$ <> <> <> <> <> <> <> <> <> <>
$$ ##$GradAmpType= (0..10)
$$ 2 0 0 0 0 0 0 0 0 0 0
$$ ##$GradPowClkTime= (0..9)
$$ 0 0 0 0 0 0 0 0 0 0
$$ ##$GradPowIcw= (0..9)
$$ 0 0 0 0 0 0 0 0 0 0
$$ ##$GradPowImax= (0..9)
$$ 0 0 0 0 0 0 0 0 0 0
$$ ##$GradPowType= (0..9)
$$ 0 0 0 0 0 0 0 0 0 0
$$ ##$GradPowVmax= (0..9)
$$ 0 0 0 0 0 0 0 0 0 0
$$ ##$HPTXLP= (0..3)
$$ -1 -1 -1 -1
$$ ##$HPTXPI= (0..3)
$$ 0 0 0 0
$$ ##$HPTXPO= (0..3)
$$ 0 0 0 0
$$ ##$HPTXTY= (0..3)
$$ 0 0 0 0
$$ ##$HpprCoverType= 2
$$ ##$IPSOTYPE= 0
$$ ##$LDUETH= <no>
$$ ##$LOCKCONF= <DLM>
$$ ##$LOCSWID= 0
$$ ##$LOCSWIF= 0
$$ ##$Location= <>
$$ ##$LtMasEth= <no>
$$ ##$LtMasType= 0
$$ ##$MAS= 0
$$ ##$MASETIME= 10
$$ ##$MASITIME= 10
$$ ##$MASTY= <no>
$$ ##$MAS_CT= 5
$$ ##$MAS_SG= 0
$$ ##$MAS_TO= 0
$$ ##$MagnCoilPnSn= <BZH0104070I02>
$$ ##$MagnDewarPnSn= <D325-54-6794>
$$ ##$MagnetPolarity= 1
$$ ##$MasEth= <no>
$$ ##$NAMPD= (0..32)
$$ <> <HPLNA 19F1H> <2H> <XBB19F 2HP> <> <> <> <> <> <> <> <> <> <> <> <>
$$ <> <> <> <> <> <> <> <> <> <> <> <> <> <> <> <> <>
$$ ##$NFCU= 2
$$ ##$NRCU= 2
$$ ##$NROUT= 0
$$ ##$NSGU= 2
$$ ##$NumActDetuneCtr= 0
$$ ##$NumVpu= 0
$$ ##$OrderNo= <HCAB-40_00057>
$$ ##$POWCHK= yes
$$ ##$PRAMD1= (0..7)
$$ 6 0 0 1610612736 0 0 0 0
$$ ##$PRAMD10= (0..7)
$$ 0 0 0 0 0 0 0 0
$$ ##$PRAMD11= (0..7)
$$ 0 0 0 0 0 0 0 0
$$ ##$PRAMD12= (0..7)
$$ 0 0 0 0 0 0 0 0
$$ ##$PRAMD13= (0..7)
$$ 0 0 0 0 0 0 0 0
$$ ##$PRAMD14= (0..7)
$$ 0 0 0 0 0 0 0 0
$$ ##$PRAMD15= (0..7)
$$ 0 0 0 0 0 0 0 0
$$ ##$PRAMD16= (0..7)
$$ 0 0 0 0 0 0 0 0
$$ ##$PRAMD17= (0..7)
$$ 0 0 0 0 0 0 0 0
$$ ##$PRAMD18= (0..7)
$$ 0 0 0 0 0 0 0 0
$$ ##$PRAMD19= (0..7)
$$ 0 0 0 0 0 0 0 0
$$ ##$PRAMD2= (0..7)
$$ 0 1048576 0 536870912 0 1048576 0 536870912
$$ ##$PRAMD20= (0..7)
$$ 0 0 0 0 0 0 0 0
$$ ##$PRAMD21= (0..7)
$$ 0 0 0 0 0 0 0 0
$$ ##$PRAMD22= (0..7)
$$ 0 0 0 0 0 0 0 0
$$ ##$PRAMD23= (0..7)
$$ 0 0 0 0 0 0 0 0
$$ ##$PRAMD24= (0..7)
$$ 0 0 0 0 0 0 0 0
$$ ##$PRAMD25= (0..7)
$$ 0 0 0 0 0 0 0 0
$$ ##$PRAMD26= (0..7)
$$ 0 0 0 0 0 0 0 0
$$ ##$PRAMD27= (0..7)
$$ 0 0 0 0 0 0 0 0
$$ ##$PRAMD28= (0..7)
$$ 0 0 0 0 0 0 0 0
$$ ##$PRAMD29= (0..7)
$$ 0 0 0 0 0 0 0 0
$$ ##$PRAMD3= (0..7)
$$ 2147483644 2147483647 2147483647 603979775 0 0 0 0
$$ ##$PRAMD30= (0..7)
$$ 0 0 0 0 0 0 0 0
$$ ##$PRAMD31= (0..7)
$$ 0 0 0 0 0 0 0 0
$$ ##$PRAMD32= (0..7)
$$ 0 0 0 0 0 0 0 0
$$ ##$PRAMD4= (0..7)
$$ 0 0 0 0 0 0 0 0
$$ ##$PRAMD5= (0..7)
$$ 0 0 0 0 0 0 0 0
$$ ##$PRAMD6= (0..7)
$$ 0 0 0 0 0 0 0 0
$$ ##$PRAMD7= (0..7)
$$ 0 0 0 0 0 0 0 0
$$ ##$PRAMD8= (0..7)
$$ 0 0 0 0 0 0 0 0
$$ ##$PRAMD9= (0..7)
$$ 0 0 0 0 0 0 0 0
$$ ##$PRAMLED= (0..1)
$$ 0 0
$$ ##$PRAMP= (0..9)
$$ <no> <no> <no> <no> <no> <no> <no> <no> <no> <no>
$$ ##$PRAMPTP= 1
$$ ##$PREEMPTYPE= 0
$$ ##$PREREC= (0..31)
$$ 1 1 2 0 0 0 0 0 0 0 0 0 0 0 0 0 0 0 0 0 0 0 0 0 0 0 0 0 0 0 0 0
$$ ##$PTSFMX= (0..23)
$$ 1290 1290 0 0 0 0 0 0 0 0 0 0 0 0 0 0 0 0 0 0 0 0 0 0
$$ ##$PULCHK= no
$$ ##$PduEth= (0..7)
$$ <192.168.99.99> <no> <no> <no> <no> <no> <no> <no>
$$ ##$PerMagATempSens= no
$$ ##$PerMagEth= <no>
$$ ##$PerMagFluxSens= no
$$ ##$PerMagMTempSens= no
$$ ##$PramDutyCycPerc= (0..31)
$$ 4 2 2 0 0 0 0 0 0 0 0 0 0 0 0 0 0 0 0 0 0 0 0 0 0 0 0 0 0 0 0 0
$$ ##$PramPPowNucW1= (0..127)
$$ <> <> <> <> <> <> <> <> <> <> <> <> <> <> <> <> <> <> <> <> <> <> <> <>
$$ <> <> <> <> <> <> <> <> <> <> <> <> <> <> <> <> <> <> <> <> <> <> <> <>
$$ <> <> <> <> <> <> <> <> <> <> <> <> <> <> <> <> <> <> <> <> <> <> <> <>
$$ <> <> <> <> <> <> <> <> <> <> <> <> <> <> <> <> <> <> <> <> <> <> <> <>
$$ <> <> <> <> <> <> <> <> <> <> <> <> <> <> <> <> <> <> <> <> <> <> <> <>
$$ <> <> <> <> <> <> <> <>
$$ ##$PramPPowNucW10= (0..127)
$$ <> <> <> <> <> <> <> <> <> <> <> <> <> <> <> <> <> <> <> <> <> <> <> <>
$$ <> <> <> <> <> <> <> <> <> <> <> <> <> <> <> <> <> <> <> <> <> <> <> <>
$$ <> <> <> <> <> <> <> <> <> <> <> <> <> <> <> <> <> <> <> <> <> <> <> <>
$$ <> <> <> <> <> <> <> <> <> <> <> <> <> <> <> <> <> <> <> <> <> <> <> <>
$$ <> <> <> <> <> <> <> <> <> <> <> <> <> <> <> <> <> <> <> <> <> <> <> <>
$$ <> <> <> <> <> <> <> <>
$$ ##$PramPPowNucW11= (0..127)
$$ <> <> <> <> <> <> <> <> <> <> <> <> <> <> <> <> <> <> <> <> <> <> <> <>
$$ <> <> <> <> <> <> <> <> <> <> <> <> <> <> <> <> <> <> <> <> <> <> <> <>
$$ <> <> <> <> <> <> <> <> <> <> <> <> <> <> <> <> <> <> <> <> <> <> <> <>
$$ <> <> <> <> <> <> <> <> <> <> <> <> <> <> <> <> <> <> <> <> <> <> <> <>
$$ <> <> <> <> <> <> <> <> <> <> <> <> <> <> <> <> <> <> <> <> <> <> <> <>
$$ <> <> <> <> <> <> <> <>
$$ ##$PramPPowNucW12= (0..127)
$$ <> <> <> <> <> <> <> <> <> <> <> <> <> <> <> <> <> <> <> <> <> <> <> <>
$$ <> <> <> <> <> <> <> <> <> <> <> <> <> <> <> <> <> <> <> <> <> <> <> <>
$$ <> <> <> <> <> <> <> <> <> <> <> <> <> <> <> <> <> <> <> <> <> <> <> <>
$$ <> <> <> <> <> <> <> <> <> <> <> <> <> <> <> <> <> <> <> <> <> <> <> <>
$$ <> <> <> <> <> <> <> <> <> <> <> <> <> <> <> <> <> <> <> <> <> <> <> <>
$$ <> <> <> <> <> <> <> <>
$$ ##$PramPPowNucW13= (0..127)
$$ <> <> <> <> <> <> <> <> <> <> <> <> <> <> <> <> <> <> <> <> <> <> <> <>
$$ <> <> <> <> <> <> <> <> <> <> <> <> <> <> <> <> <> <> <> <> <> <> <> <>
$$ <> <> <> <> <> <> <> <> <> <> <> <> <> <> <> <> <> <> <> <> <> <> <> <>
$$ <> <> <> <> <> <> <> <> <> <> <> <> <> <> <> <> <> <> <> <> <> <> <> <>
$$ <> <> <> <> <> <> <> <> <> <> <> <> <> <> <> <> <> <> <> <> <> <> <> <>
$$ <> <> <> <> <> <> <> <>
$$ ##$PramPPowNucW14= (0..127)
$$ <> <> <> <> <> <> <> <> <> <> <> <> <> <> <> <> <> <> <> <> <> <> <> <>
$$ <> <> <> <> <> <> <> <> <> <> <> <> <> <> <> <> <> <> <> <> <> <> <> <>
$$ <> <> <> <> <> <> <> <> <> <> <> <> <> <> <> <> <> <> <> <> <> <> <> <>
$$ <> <> <> <> <> <> <> <> <> <> <> <> <> <> <> <> <> <> <> <> <> <> <> <>
$$ <> <> <> <> <> <> <> <> <> <> <> <> <> <> <> <> <> <> <> <> <> <> <> <>
$$ <> <> <> <> <> <> <> <>
$$ ##$PramPPowNucW15= (0..127)
$$ <> <> <> <> <> <> <> <> <> <> <> <> <> <> <> <> <> <> <> <> <> <> <> <>
$$ <> <> <> <> <> <> <> <> <> <> <> <> <> <> <> <> <> <> <> <> <> <> <> <>
$$ <> <> <> <> <> <> <> <> <> <> <> <> <> <> <> <> <> <> <> <> <> <> <> <>
$$ <> <> <> <> <> <> <> <> <> <> <> <> <> <> <> <> <> <> <> <> <> <> <> <>
$$ <> <> <> <> <> <> <> <> <> <> <> <> <> <> <> <> <> <> <> <> <> <> <> <>
$$ <> <> <> <> <> <> <> <>
$$ ##$PramPPowNucW16= (0..127)
$$ <> <> <> <> <> <> <> <> <> <> <> <> <> <> <> <> <> <> <> <> <> <> <> <>
$$ <> <> <> <> <> <> <> <> <> <> <> <> <> <> <> <> <> <> <> <> <> <> <> <>
$$ <> <> <> <> <> <> <> <> <> <> <> <> <> <> <> <> <> <> <> <> <> <> <> <>
$$ <> <> <> <> <> <> <> <> <> <> <> <> <> <> <> <> <> <> <> <> <> <> <> <>
$$ <> <> <> <> <> <> <> <> <> <> <> <> <> <> <> <> <> <> <> <> <> <> <> <>
$$ <> <> <> <> <> <> <> <>
$$ ##$PramPPowNucW17= (0..127)
$$ <> <> <> <> <> <> <> <> <> <> <> <> <> <> <> <> <> <> <> <> <> <> <> <>
$$ <> <> <> <> <> <> <> <> <> <> <> <> <> <> <> <> <> <> <> <> <> <> <> <>
$$ <> <> <> <> <> <> <> <> <> <> <> <> <> <> <> <> <> <> <> <> <> <> <> <>
$$ <> <> <> <> <> <> <> <> <> <> <> <> <> <> <> <> <> <> <> <> <> <> <> <>
$$ <> <> <> <> <> <> <> <> <> <> <> <> <> <> <> <> <> <> <> <> <> <> <> <>
$$ <> <> <> <> <> <> <> <>
$$ ##$PramPPowNucW18= (0..127)
$$ <> <> <> <> <> <> <> <> <> <> <> <> <> <> <> <> <> <> <> <> <> <> <> <>
$$ <> <> <> <> <> <> <> <> <> <> <> <> <> <> <> <> <> <> <> <> <> <> <> <>
$$ <> <> <> <> <> <> <> <> <> <> <> <> <> <> <> <> <> <> <> <> <> <> <> <>
$$ <> <> <> <> <> <> <> <> <> <> <> <> <> <> <> <> <> <> <> <> <> <> <> <>
$$ <> <> <> <> <> <> <> <> <> <> <> <> <> <> <> <> <> <> <> <> <> <> <> <>
$$ <> <> <> <> <> <> <> <>
$$ ##$PramPPowNucW19= (0..127)
$$ <> <> <> <> <> <> <> <> <> <> <> <> <> <> <> <> <> <> <> <> <> <> <> <>
$$ <> <> <> <> <> <> <> <> <> <> <> <> <> <> <> <> <> <> <> <> <> <> <> <>
$$ <> <> <> <> <> <> <> <> <> <> <> <> <> <> <> <> <> <> <> <> <> <> <> <>
$$ <> <> <> <> <> <> <> <> <> <> <> <> <> <> <> <> <> <> <> <> <> <> <> <>
$$ <> <> <> <> <> <> <> <> <> <> <> <> <> <> <> <> <> <> <> <> <> <> <> <>
$$ <> <> <> <> <> <> <> <>
$$ ##$PramPPowNucW2= (0..127)
$$ <> <> <> <> <> <> <> <> <> <> <> <> <> <> <> <> <> <> <> <> <> <> <> <>
$$ <> <> <> <> <> <> <> <> <> <> <> <> <> <> <> <> <> <> <> <> <> <> <> <>
$$ <> <> <> <> <> <> <> <> <> <> <> <> <> <> <> <> <> <> <> <> <> <> <> <>
$$ <> <> <> <> <> <> <> <> <> <> <> <> <> <> <> <> <> <> <> <> <> <> <> <>
$$ <> <> <> <> <> <> <> <> <> <> <> <> <> <> <> <> <> <> <> <> <> <> <> <>
$$ <> <> <> <> <> <> <> <>
$$ ##$PramPPowNucW20= (0..127)
$$ <> <> <> <> <> <> <> <> <> <> <> <> <> <> <> <> <> <> <> <> <> <> <> <>
$$ <> <> <> <> <> <> <> <> <> <> <> <> <> <> <> <> <> <> <> <> <> <> <> <>
$$ <> <> <> <> <> <> <> <> <> <> <> <> <> <> <> <> <> <> <> <> <> <> <> <>
$$ <> <> <> <> <> <> <> <> <> <> <> <> <> <> <> <> <> <> <> <> <> <> <> <>
$$ <> <> <> <> <> <> <> <> <> <> <> <> <> <> <> <> <> <> <> <> <> <> <> <>
$$ <> <> <> <> <> <> <> <>
$$ ##$PramPPowNucW21= (0..127)
$$ <> <> <> <> <> <> <> <> <> <> <> <> <> <> <> <> <> <> <> <> <> <> <> <>
$$ <> <> <> <> <> <> <> <> <> <> <> <> <> <> <> <> <> <> <> <> <> <> <> <>
$$ <> <> <> <> <> <> <> <> <> <> <> <> <> <> <> <> <> <> <> <> <> <> <> <>
$$ <> <> <> <> <> <> <> <> <> <> <> <> <> <> <> <> <> <> <> <> <> <> <> <>
$$ <> <> <> <> <> <> <> <> <> <> <> <> <> <> <> <> <> <> <> <> <> <> <> <>
$$ <> <> <> <> <> <> <> <>
$$ ##$PramPPowNucW22= (0..127)
$$ <> <> <> <> <> <> <> <> <> <> <> <> <> <> <> <> <> <> <> <> <> <> <> <>
$$ <> <> <> <> <> <> <> <> <> <> <> <> <> <> <> <> <> <> <> <> <> <> <> <>
$$ <> <> <> <> <> <> <> <> <> <> <> <> <> <> <> <> <> <> <> <> <> <> <> <>
$$ <> <> <> <> <> <> <> <> <> <> <> <> <> <> <> <> <> <> <> <> <> <> <> <>
$$ <> <> <> <> <> <> <> <> <> <> <> <> <> <> <> <> <> <> <> <> <> <> <> <>
$$ <> <> <> <> <> <> <> <>
$$ ##$PramPPowNucW23= (0..127)
$$ <> <> <> <> <> <> <> <> <> <> <> <> <> <> <> <> <> <> <> <> <> <> <> <>
$$ <> <> <> <> <> <> <> <> <> <> <> <> <> <> <> <> <> <> <> <> <> <> <> <>
$$ <> <> <> <> <> <> <> <> <> <> <> <> <> <> <> <> <> <> <> <> <> <> <> <>
$$ <> <> <> <> <> <> <> <> <> <> <> <> <> <> <> <> <> <> <> <> <> <> <> <>
$$ <> <> <> <> <> <> <> <> <> <> <> <> <> <> <> <> <> <> <> <> <> <> <> <>
$$ <> <> <> <> <> <> <> <>
$$ ##$PramPPowNucW24= (0..127)
$$ <> <> <> <> <> <> <> <> <> <> <> <> <> <> <> <> <> <> <> <> <> <> <> <>
$$ <> <> <> <> <> <> <> <> <> <> <> <> <> <> <> <> <> <> <> <> <> <> <> <>
$$ <> <> <> <> <> <> <> <> <> <> <> <> <> <> <> <> <> <> <> <> <> <> <> <>
$$ <> <> <> <> <> <> <> <> <> <> <> <> <> <> <> <> <> <> <> <> <> <> <> <>
$$ <> <> <> <> <> <> <> <> <> <> <> <> <> <> <> <> <> <> <> <> <> <> <> <>
$$ <> <> <> <> <> <> <> <>
$$ ##$PramPPowNucW25= (0..127)
$$ <> <> <> <> <> <> <> <> <> <> <> <> <> <> <> <> <> <> <> <> <> <> <> <>
$$ <> <> <> <> <> <> <> <> <> <> <> <> <> <> <> <> <> <> <> <> <> <> <> <>
$$ <> <> <> <> <> <> <> <> <> <> <> <> <> <> <> <> <> <> <> <> <> <> <> <>
$$ <> <> <> <> <> <> <> <> <> <> <> <> <> <> <> <> <> <> <> <> <> <> <> <>
$$ <> <> <> <> <> <> <> <> <> <> <> <> <> <> <> <> <> <> <> <> <> <> <> <>
$$ <> <> <> <> <> <> <> <>
$$ ##$PramPPowNucW26= (0..127)
$$ <> <> <> <> <> <> <> <> <> <> <> <> <> <> <> <> <> <> <> <> <> <> <> <>
$$ <> <> <> <> <> <> <> <> <> <> <> <> <> <> <> <> <> <> <> <> <> <> <> <>
$$ <> <> <> <> <> <> <> <> <> <> <> <> <> <> <> <> <> <> <> <> <> <> <> <>
$$ <> <> <> <> <> <> <> <> <> <> <> <> <> <> <> <> <> <> <> <> <> <> <> <>
$$ <> <> <> <> <> <> <> <> <> <> <> <> <> <> <> <> <> <> <> <> <> <> <> <>
$$ <> <> <> <> <> <> <> <>
$$ ##$PramPPowNucW27= (0..127)
$$ <> <> <> <> <> <> <> <> <> <> <> <> <> <> <> <> <> <> <> <> <> <> <> <>
$$ <> <> <> <> <> <> <> <> <> <> <> <> <> <> <> <> <> <> <> <> <> <> <> <>
$$ <> <> <> <> <> <> <> <> <> <> <> <> <> <> <> <> <> <> <> <> <> <> <> <>
$$ <> <> <> <> <> <> <> <> <> <> <> <> <> <> <> <> <> <> <> <> <> <> <> <>
$$ <> <> <> <> <> <> <> <> <> <> <> <> <> <> <> <> <> <> <> <> <> <> <> <>
$$ <> <> <> <> <> <> <> <>
$$ ##$PramPPowNucW28= (0..127)
$$ <> <> <> <> <> <> <> <> <> <> <> <> <> <> <> <> <> <> <> <> <> <> <> <>
$$ <> <> <> <> <> <> <> <> <> <> <> <> <> <> <> <> <> <> <> <> <> <> <> <>
$$ <> <> <> <> <> <> <> <> <> <> <> <> <> <> <> <> <> <> <> <> <> <> <> <>
$$ <> <> <> <> <> <> <> <> <> <> <> <> <> <> <> <> <> <> <> <> <> <> <> <>
$$ <> <> <> <> <> <> <> <> <> <> <> <> <> <> <> <> <> <> <> <> <> <> <> <>
$$ <> <> <> <> <> <> <> <>
$$ ##$PramPPowNucW29= (0..127)
$$ <> <> <> <> <> <> <> <> <> <> <> <> <> <> <> <> <> <> <> <> <> <> <> <>
$$ <> <> <> <> <> <> <> <> <> <> <> <> <> <> <> <> <> <> <> <> <> <> <> <>
$$ <> <> <> <> <> <> <> <> <> <> <> <> <> <> <> <> <> <> <> <> <> <> <> <>
$$ <> <> <> <> <> <> <> <> <> <> <> <> <> <> <> <> <> <> <> <> <> <> <> <>
$$ <> <> <> <> <> <> <> <> <> <> <> <> <> <> <> <> <> <> <> <> <> <> <> <>
$$ <> <> <> <> <> <> <> <>
$$ ##$PramPPowNucW3= (0..127)
$$ <> <> <> <> <> <> <> <> <> <> <> <> <> <> <> <> <> <> <> <> <> <> <> <>
$$ <> <> <> <> <> <> <> <> <> <> <> <> <> <> <> <> <> <> <> <> <> <> <> <>
$$ <> <> <> <> <> <> <> <> <> <> <> <> <> <> <> <> <> <> <> <> <> <> <> <>
$$ <> <> <> <> <> <> <> <> <> <> <> <> <> <> <> <> <> <> <> <> <> <> <> <>
$$ <> <> <> <> <> <> <> <> <> <> <> <> <> <> <> <> <> <> <> <> <> <> <> <>
$$ <> <> <> <> <> <> <> <>
$$ ##$PramPPowNucW30= (0..127)
$$ <> <> <> <> <> <> <> <> <> <> <> <> <> <> <> <> <> <> <> <> <> <> <> <>
$$ <> <> <> <> <> <> <> <> <> <> <> <> <> <> <> <> <> <> <> <> <> <> <> <>
$$ <> <> <> <> <> <> <> <> <> <> <> <> <> <> <> <> <> <> <> <> <> <> <> <>
$$ <> <> <> <> <> <> <> <> <> <> <> <> <> <> <> <> <> <> <> <> <> <> <> <>
$$ <> <> <> <> <> <> <> <> <> <> <> <> <> <> <> <> <> <> <> <> <> <> <> <>
$$ <> <> <> <> <> <> <> <>
$$ ##$PramPPowNucW31= (0..127)
$$ <> <> <> <> <> <> <> <> <> <> <> <> <> <> <> <> <> <> <> <> <> <> <> <>
$$ <> <> <> <> <> <> <> <> <> <> <> <> <> <> <> <> <> <> <> <> <> <> <> <>
$$ <> <> <> <> <> <> <> <> <> <> <> <> <> <> <> <> <> <> <> <> <> <> <> <>
$$ <> <> <> <> <> <> <> <> <> <> <> <> <> <> <> <> <> <> <> <> <> <> <> <>
$$ <> <> <> <> <> <> <> <> <> <> <> <> <> <> <> <> <> <> <> <> <> <> <> <>
$$ <> <> <> <> <> <> <> <>
$$ ##$PramPPowNucW32= (0..127)
$$ <> <> <> <> <> <> <> <> <> <> <> <> <> <> <> <> <> <> <> <> <> <> <> <>
$$ <> <> <> <> <> <> <> <> <> <> <> <> <> <> <> <> <> <> <> <> <> <> <> <>
$$ <> <> <> <> <> <> <> <> <> <> <> <> <> <> <> <> <> <> <> <> <> <> <> <>
$$ <> <> <> <> <> <> <> <> <> <> <> <> <> <> <> <> <> <> <> <> <> <> <> <>
$$ <> <> <> <> <> <> <> <> <> <> <> <> <> <> <> <> <> <> <> <> <> <> <> <>
$$ <> <> <> <> <> <> <> <>
$$ ##$PramPPowNucW4= (0..127)
$$ <> <> <> <> <> <> <> <> <> <> <> <> <> <> <> <> <> <> <> <> <> <> <> <>
$$ <> <> <> <> <> <> <> <> <> <> <> <> <> <> <> <> <> <> <> <> <> <> <> <>
$$ <> <> <> <> <> <> <> <> <> <> <> <> <> <> <> <> <> <> <> <> <> <> <> <>
$$ <> <> <> <> <> <> <> <> <> <> <> <> <> <> <> <> <> <> <> <> <> <> <> <>
$$ <> <> <> <> <> <> <> <> <> <> <> <> <> <> <> <> <> <> <> <> <> <> <> <>
$$ <> <> <> <> <> <> <> <>
$$ ##$PramPPowNucW5= (0..127)
$$ <> <> <> <> <> <> <> <> <> <> <> <> <> <> <> <> <> <> <> <> <> <> <> <>
$$ <> <> <> <> <> <> <> <> <> <> <> <> <> <> <> <> <> <> <> <> <> <> <> <>
$$ <> <> <> <> <> <> <> <> <> <> <> <> <> <> <> <> <> <> <> <> <> <> <> <>
$$ <> <> <> <> <> <> <> <> <> <> <> <> <> <> <> <> <> <> <> <> <> <> <> <>
$$ <> <> <> <> <> <> <> <> <> <> <> <> <> <> <> <> <> <> <> <> <> <> <> <>
$$ <> <> <> <> <> <> <> <>
$$ ##$PramPPowNucW6= (0..127)
$$ <> <> <> <> <> <> <> <> <> <> <> <> <> <> <> <> <> <> <> <> <> <> <> <>
$$ <> <> <> <> <> <> <> <> <> <> <> <> <> <> <> <> <> <> <> <> <> <> <> <>
$$ <> <> <> <> <> <> <> <> <> <> <> <> <> <> <> <> <> <> <> <> <> <> <> <>
$$ <> <> <> <> <> <> <> <> <> <> <> <> <> <> <> <> <> <> <> <> <> <> <> <>
$$ <> <> <> <> <> <> <> <> <> <> <> <> <> <> <> <> <> <> <> <> <> <> <> <>
$$ <> <> <> <> <> <> <> <>
$$ ##$PramPPowNucW7= (0..127)
$$ <> <> <> <> <> <> <> <> <> <> <> <> <> <> <> <> <> <> <> <> <> <> <> <>
$$ <> <> <> <> <> <> <> <> <> <> <> <> <> <> <> <> <> <> <> <> <> <> <> <>
$$ <> <> <> <> <> <> <> <> <> <> <> <> <> <> <> <> <> <> <> <> <> <> <> <>
$$ <> <> <> <> <> <> <> <> <> <> <> <> <> <> <> <> <> <> <> <> <> <> <> <>
$$ <> <> <> <> <> <> <> <> <> <> <> <> <> <> <> <> <> <> <> <> <> <> <> <>
$$ <> <> <> <> <> <> <> <>
$$ ##$PramPPowNucW8= (0..127)
$$ <> <> <> <> <> <> <> <> <> <> <> <> <> <> <> <> <> <> <> <> <> <> <> <>
$$ <> <> <> <> <> <> <> <> <> <> <> <> <> <> <> <> <> <> <> <> <> <> <> <>
$$ <> <> <> <> <> <> <> <> <> <> <> <> <> <> <> <> <> <> <> <> <> <> <> <>
$$ <> <> <> <> <> <> <> <> <> <> <> <> <> <> <> <> <> <> <> <> <> <> <> <>
$$ <> <> <> <> <> <> <> <> <> <> <> <> <> <> <> <> <> <> <> <> <> <> <> <>
$$ <> <> <> <> <> <> <> <>
$$ ##$PramPPowNucW9= (0..127)
$$ <> <> <> <> <> <> <> <> <> <> <> <> <> <> <> <> <> <> <> <> <> <> <> <>
$$ <> <> <> <> <> <> <> <> <> <> <> <> <> <> <> <> <> <> <> <> <> <> <> <>
$$ <> <> <> <> <> <> <> <> <> <> <> <> <> <> <> <> <> <> <> <> <> <> <> <>
$$ <> <> <> <> <> <> <> <> <> <> <> <> <> <> <> <> <> <> <> <> <> <> <> <>
$$ <> <> <> <> <> <> <> <> <> <> <> <> <> <> <> <> <> <> <> <> <> <> <> <>
$$ <> <> <> <> <> <> <> <>
$$ ##$PramPeakPowerW= (0..31)
$$ 4000 500 500 0 0 0 0 0 0 0 0 0 0 0 0 0 0 0 0 0 0 0 0 0 0 0 0 0 0 0 0 0
$$ ##$PramPowerSwitch= (0..31)
$$ 0 0 0 0 0 0 0 0 0 0 0 0 0 0 0 0 0 0 0 0 0 0 0 0 0 0 0 0 0 0 0 0
$$ ##$PramPulWidthMs= (0..31)
$$ 10 0.1 0.1 0 0 0 0 0 0 0 0 0 0 0 0 0 0 0 0 0 0 0 0 0 0 0 0 0 0 0 0 0
$$ ##$PreampModBisDat= (0..31)
$$ 20170831 20170803 20171010 0 0 0 0 0 0 0 0 0 0 0 0 0 0 0 0 0 0 0 0 0 0
$$ 0 0 0 0 0 0 0
$$ ##$PreampModPN= (0..31)
$$ <Z103203> <Z003471> <Z106984> <> <> <> <> <> <> <> <> <> <> <> <> <> <>
$$ <> <> <> <> <> <> <> <> <> <> <> <> <> <> <>
$$ ##$PreampModSN= (0..31)
$$ <00751> <00354> <00310> <> <> <> <> <> <> <> <> <> <> <> <> <> <> <> <>
$$ <> <> <> <> <> <> <> <> <> <> <> <> <>
$$ ##$ProdigyEth= <no>
$$ ##$ProdigyFw= <no>
$$ ##$ProdigyPn= <no>
$$ ##$ProdigySn= <no>
$$ ##$RFSVTY= <no>
$$ ##$RGTYPE= (0..31)
$$ 9 9 0 0 0 0 0 0 0 0 0 0 0 0 0 0 0 0 0 0 0 0 0 0 0 0 0 0 0 0 0 0
$$ ##$RG_max= (0..31)
$$ 101 101 -1 -1 -1 -1 -1 -1 -1 -1 -1 -1 -1 -1 -1 -1 -1 -1 -1 -1 -1 -1 -1
$$ -1 -1 -1 -1 -1 -1 -1 -1 -1
$$ ##$RG_min= (0..31)
$$ 0.25 0.25 -1 -1 -1 -1 -1 -1 -1 -1 -1 -1 -1 -1 -1 -1 -1 -1 -1 -1 -1 -1 -1
$$ -1 -1 -1 -1 -1 -1 -1 -1 -1
$$ ##$RG_tab1= (0..127)
$$ 0.25 0.28 0.32 0.35 0.4 0.44 0.5 0.56 0.64 0.7 0.8 0.89 1 1.12 1.28 1.4
$$ 1.6 1.78 2 2.25 2.56 2.8 3.2 3.56 4 4.5 5 5.6 6.35 7.12 8 9 10 11.3 12.7
$$ 14.2 16 18 20.2 22.6 25.4 28.5 32 36 40.3 45.2 50.8 57 64 71.8 80.6 90.5
$$ 101 -1 -1 -1 -1 -1 -1 -1 -1 -1 -1 -1 -1 -1 -1 -1 -1 -1 -1 -1 -1 -1 -1 -1
$$ -1 -1 -1 -1 -1 -1 -1 -1 -1 -1 -1 -1 -1 -1 -1 -1 -1 -1 -1 -1 -1 -1 -1 -1
$$ -1 -1 -1 -1 -1 -1 -1 -1 -1 -1 -1 -1 -1 -1 -1 -1 -1 -1 -1 -1 -1 -1 -1 -1
$$ -1 -1 -1 -1
$$ ##$RG_tab10= (0..127)
$$ -1 -1 -1 -1 -1 -1 -1 -1 -1 -1 -1 -1 -1 -1 -1 -1 -1 -1 -1 -1 -1 -1 -1 -1
$$ -1 -1 -1 -1 -1 -1 -1 -1 -1 -1 -1 -1 -1 -1 -1 -1 -1 -1 -1 -1 -1 -1 -1 -1
$$ -1 -1 -1 -1 -1 -1 -1 -1 -1 -1 -1 -1 -1 -1 -1 -1 -1 -1 -1 -1 -1 -1 -1 -1
$$ -1 -1 -1 -1 -1 -1 -1 -1 -1 -1 -1 -1 -1 -1 -1 -1 -1 -1 -1 -1 -1 -1 -1 -1
$$ -1 -1 -1 -1 -1 -1 -1 -1 -1 -1 -1 -1 -1 -1 -1 -1 -1 -1 -1 -1 -1 -1 -1 -1
$$ -1 -1 -1 -1 -1 -1 -1 -1
$$ ##$RG_tab11= (0..127)
$$ -1 -1 -1 -1 -1 -1 -1 -1 -1 -1 -1 -1 -1 -1 -1 -1 -1 -1 -1 -1 -1 -1 -1 -1
$$ -1 -1 -1 -1 -1 -1 -1 -1 -1 -1 -1 -1 -1 -1 -1 -1 -1 -1 -1 -1 -1 -1 -1 -1
$$ -1 -1 -1 -1 -1 -1 -1 -1 -1 -1 -1 -1 -1 -1 -1 -1 -1 -1 -1 -1 -1 -1 -1 -1
$$ -1 -1 -1 -1 -1 -1 -1 -1 -1 -1 -1 -1 -1 -1 -1 -1 -1 -1 -1 -1 -1 -1 -1 -1
$$ -1 -1 -1 -1 -1 -1 -1 -1 -1 -1 -1 -1 -1 -1 -1 -1 -1 -1 -1 -1 -1 -1 -1 -1
$$ -1 -1 -1 -1 -1 -1 -1 -1
$$ ##$RG_tab12= (0..127)
$$ -1 -1 -1 -1 -1 -1 -1 -1 -1 -1 -1 -1 -1 -1 -1 -1 -1 -1 -1 -1 -1 -1 -1 -1
$$ -1 -1 -1 -1 -1 -1 -1 -1 -1 -1 -1 -1 -1 -1 -1 -1 -1 -1 -1 -1 -1 -1 -1 -1
$$ -1 -1 -1 -1 -1 -1 -1 -1 -1 -1 -1 -1 -1 -1 -1 -1 -1 -1 -1 -1 -1 -1 -1 -1
$$ -1 -1 -1 -1 -1 -1 -1 -1 -1 -1 -1 -1 -1 -1 -1 -1 -1 -1 -1 -1 -1 -1 -1 -1
$$ -1 -1 -1 -1 -1 -1 -1 -1 -1 -1 -1 -1 -1 -1 -1 -1 -1 -1 -1 -1 -1 -1 -1 -1
$$ -1 -1 -1 -1 -1 -1 -1 -1
$$ ##$RG_tab13= (0..127)
$$ -1 -1 -1 -1 -1 -1 -1 -1 -1 -1 -1 -1 -1 -1 -1 -1 -1 -1 -1 -1 -1 -1 -1 -1
$$ -1 -1 -1 -1 -1 -1 -1 -1 -1 -1 -1 -1 -1 -1 -1 -1 -1 -1 -1 -1 -1 -1 -1 -1
$$ -1 -1 -1 -1 -1 -1 -1 -1 -1 -1 -1 -1 -1 -1 -1 -1 -1 -1 -1 -1 -1 -1 -1 -1
$$ -1 -1 -1 -1 -1 -1 -1 -1 -1 -1 -1 -1 -1 -1 -1 -1 -1 -1 -1 -1 -1 -1 -1 -1
$$ -1 -1 -1 -1 -1 -1 -1 -1 -1 -1 -1 -1 -1 -1 -1 -1 -1 -1 -1 -1 -1 -1 -1 -1
$$ -1 -1 -1 -1 -1 -1 -1 -1
$$ ##$RG_tab14= (0..127)
$$ -1 -1 -1 -1 -1 -1 -1 -1 -1 -1 -1 -1 -1 -1 -1 -1 -1 -1 -1 -1 -1 -1 -1 -1
$$ -1 -1 -1 -1 -1 -1 -1 -1 -1 -1 -1 -1 -1 -1 -1 -1 -1 -1 -1 -1 -1 -1 -1 -1
$$ -1 -1 -1 -1 -1 -1 -1 -1 -1 -1 -1 -1 -1 -1 -1 -1 -1 -1 -1 -1 -1 -1 -1 -1
$$ -1 -1 -1 -1 -1 -1 -1 -1 -1 -1 -1 -1 -1 -1 -1 -1 -1 -1 -1 -1 -1 -1 -1 -1
$$ -1 -1 -1 -1 -1 -1 -1 -1 -1 -1 -1 -1 -1 -1 -1 -1 -1 -1 -1 -1 -1 -1 -1 -1
$$ -1 -1 -1 -1 -1 -1 -1 -1
$$ ##$RG_tab15= (0..127)
$$ -1 -1 -1 -1 -1 -1 -1 -1 -1 -1 -1 -1 -1 -1 -1 -1 -1 -1 -1 -1 -1 -1 -1 -1
$$ -1 -1 -1 -1 -1 -1 -1 -1 -1 -1 -1 -1 -1 -1 -1 -1 -1 -1 -1 -1 -1 -1 -1 -1
$$ -1 -1 -1 -1 -1 -1 -1 -1 -1 -1 -1 -1 -1 -1 -1 -1 -1 -1 -1 -1 -1 -1 -1 -1
$$ -1 -1 -1 -1 -1 -1 -1 -1 -1 -1 -1 -1 -1 -1 -1 -1 -1 -1 -1 -1 -1 -1 -1 -1
$$ -1 -1 -1 -1 -1 -1 -1 -1 -1 -1 -1 -1 -1 -1 -1 -1 -1 -1 -1 -1 -1 -1 -1 -1
$$ -1 -1 -1 -1 -1 -1 -1 -1
$$ ##$RG_tab16= (0..127)
$$ -1 -1 -1 -1 -1 -1 -1 -1 -1 -1 -1 -1 -1 -1 -1 -1 -1 -1 -1 -1 -1 -1 -1 -1
$$ -1 -1 -1 -1 -1 -1 -1 -1 -1 -1 -1 -1 -1 -1 -1 -1 -1 -1 -1 -1 -1 -1 -1 -1
$$ -1 -1 -1 -1 -1 -1 -1 -1 -1 -1 -1 -1 -1 -1 -1 -1 -1 -1 -1 -1 -1 -1 -1 -1
$$ -1 -1 -1 -1 -1 -1 -1 -1 -1 -1 -1 -1 -1 -1 -1 -1 -1 -1 -1 -1 -1 -1 -1 -1
$$ -1 -1 -1 -1 -1 -1 -1 -1 -1 -1 -1 -1 -1 -1 -1 -1 -1 -1 -1 -1 -1 -1 -1 -1
$$ -1 -1 -1 -1 -1 -1 -1 -1
$$ ##$RG_tab17= (0..127)
$$ -1 -1 -1 -1 -1 -1 -1 -1 -1 -1 -1 -1 -1 -1 -1 -1 -1 -1 -1 -1 -1 -1 -1 -1
$$ -1 -1 -1 -1 -1 -1 -1 -1 -1 -1 -1 -1 -1 -1 -1 -1 -1 -1 -1 -1 -1 -1 -1 -1
$$ -1 -1 -1 -1 -1 -1 -1 -1 -1 -1 -1 -1 -1 -1 -1 -1 -1 -1 -1 -1 -1 -1 -1 -1
$$ -1 -1 -1 -1 -1 -1 -1 -1 -1 -1 -1 -1 -1 -1 -1 -1 -1 -1 -1 -1 -1 -1 -1 -1
$$ -1 -1 -1 -1 -1 -1 -1 -1 -1 -1 -1 -1 -1 -1 -1 -1 -1 -1 -1 -1 -1 -1 -1 -1
$$ -1 -1 -1 -1 -1 -1 -1 -1
$$ ##$RG_tab18= (0..127)
$$ -1 -1 -1 -1 -1 -1 -1 -1 -1 -1 -1 -1 -1 -1 -1 -1 -1 -1 -1 -1 -1 -1 -1 -1
$$ -1 -1 -1 -1 -1 -1 -1 -1 -1 -1 -1 -1 -1 -1 -1 -1 -1 -1 -1 -1 -1 -1 -1 -1
$$ -1 -1 -1 -1 -1 -1 -1 -1 -1 -1 -1 -1 -1 -1 -1 -1 -1 -1 -1 -1 -1 -1 -1 -1
$$ -1 -1 -1 -1 -1 -1 -1 -1 -1 -1 -1 -1 -1 -1 -1 -1 -1 -1 -1 -1 -1 -1 -1 -1
$$ -1 -1 -1 -1 -1 -1 -1 -1 -1 -1 -1 -1 -1 -1 -1 -1 -1 -1 -1 -1 -1 -1 -1 -1
$$ -1 -1 -1 -1 -1 -1 -1 -1
$$ ##$RG_tab19= (0..127)
$$ -1 -1 -1 -1 -1 -1 -1 -1 -1 -1 -1 -1 -1 -1 -1 -1 -1 -1 -1 -1 -1 -1 -1 -1
$$ -1 -1 -1 -1 -1 -1 -1 -1 -1 -1 -1 -1 -1 -1 -1 -1 -1 -1 -1 -1 -1 -1 -1 -1
$$ -1 -1 -1 -1 -1 -1 -1 -1 -1 -1 -1 -1 -1 -1 -1 -1 -1 -1 -1 -1 -1 -1 -1 -1
$$ -1 -1 -1 -1 -1 -1 -1 -1 -1 -1 -1 -1 -1 -1 -1 -1 -1 -1 -1 -1 -1 -1 -1 -1
$$ -1 -1 -1 -1 -1 -1 -1 -1 -1 -1 -1 -1 -1 -1 -1 -1 -1 -1 -1 -1 -1 -1 -1 -1
$$ -1 -1 -1 -1 -1 -1 -1 -1
$$ ##$RG_tab2= (0..127)
$$ 0.25 0.28 0.32 0.35 0.4 0.44 0.5 0.56 0.64 0.7 0.8 0.89 1 1.12 1.28 1.4
$$ 1.6 1.78 2 2.25 2.56 2.8 3.2 3.56 4 4.5 5 5.6 6.35 7.12 8 9 10 11.3 12.7
$$ 14.2 16 18 20.2 22.6 25.4 28.5 32 36 40.3 45.2 50.8 57 64 71.8 80.6 90.5
$$ 101 -1 -1 -1 -1 -1 -1 -1 -1 -1 -1 -1 -1 -1 -1 -1 -1 -1 -1 -1 -1 -1 -1 -1
$$ -1 -1 -1 -1 -1 -1 -1 -1 -1 -1 -1 -1 -1 -1 -1 -1 -1 -1 -1 -1 -1 -1 -1 -1
$$ -1 -1 -1 -1 -1 -1 -1 -1 -1 -1 -1 -1 -1 -1 -1 -1 -1 -1 -1 -1 -1 -1 -1 -1
$$ -1 -1 -1 -1
$$ ##$RG_tab20= (0..127)
$$ -1 -1 -1 -1 -1 -1 -1 -1 -1 -1 -1 -1 -1 -1 -1 -1 -1 -1 -1 -1 -1 -1 -1 -1
$$ -1 -1 -1 -1 -1 -1 -1 -1 -1 -1 -1 -1 -1 -1 -1 -1 -1 -1 -1 -1 -1 -1 -1 -1
$$ -1 -1 -1 -1 -1 -1 -1 -1 -1 -1 -1 -1 -1 -1 -1 -1 -1 -1 -1 -1 -1 -1 -1 -1
$$ -1 -1 -1 -1 -1 -1 -1 -1 -1 -1 -1 -1 -1 -1 -1 -1 -1 -1 -1 -1 -1 -1 -1 -1
$$ -1 -1 -1 -1 -1 -1 -1 -1 -1 -1 -1 -1 -1 -1 -1 -1 -1 -1 -1 -1 -1 -1 -1 -1
$$ -1 -1 -1 -1 -1 -1 -1 -1
$$ ##$RG_tab21= (0..127)
$$ -1 -1 -1 -1 -1 -1 -1 -1 -1 -1 -1 -1 -1 -1 -1 -1 -1 -1 -1 -1 -1 -1 -1 -1
$$ -1 -1 -1 -1 -1 -1 -1 -1 -1 -1 -1 -1 -1 -1 -1 -1 -1 -1 -1 -1 -1 -1 -1 -1
$$ -1 -1 -1 -1 -1 -1 -1 -1 -1 -1 -1 -1 -1 -1 -1 -1 -1 -1 -1 -1 -1 -1 -1 -1
$$ -1 -1 -1 -1 -1 -1 -1 -1 -1 -1 -1 -1 -1 -1 -1 -1 -1 -1 -1 -1 -1 -1 -1 -1
$$ -1 -1 -1 -1 -1 -1 -1 -1 -1 -1 -1 -1 -1 -1 -1 -1 -1 -1 -1 -1 -1 -1 -1 -1
$$ -1 -1 -1 -1 -1 -1 -1 -1
$$ ##$RG_tab22= (0..127)
$$ -1 -1 -1 -1 -1 -1 -1 -1 -1 -1 -1 -1 -1 -1 -1 -1 -1 -1 -1 -1 -1 -1 -1 -1
$$ -1 -1 -1 -1 -1 -1 -1 -1 -1 -1 -1 -1 -1 -1 -1 -1 -1 -1 -1 -1 -1 -1 -1 -1
$$ -1 -1 -1 -1 -1 -1 -1 -1 -1 -1 -1 -1 -1 -1 -1 -1 -1 -1 -1 -1 -1 -1 -1 -1
$$ -1 -1 -1 -1 -1 -1 -1 -1 -1 -1 -1 -1 -1 -1 -1 -1 -1 -1 -1 -1 -1 -1 -1 -1
$$ -1 -1 -1 -1 -1 -1 -1 -1 -1 -1 -1 -1 -1 -1 -1 -1 -1 -1 -1 -1 -1 -1 -1 -1
$$ -1 -1 -1 -1 -1 -1 -1 -1
$$ ##$RG_tab23= (0..127)
$$ -1 -1 -1 -1 -1 -1 -1 -1 -1 -1 -1 -1 -1 -1 -1 -1 -1 -1 -1 -1 -1 -1 -1 -1
$$ -1 -1 -1 -1 -1 -1 -1 -1 -1 -1 -1 -1 -1 -1 -1 -1 -1 -1 -1 -1 -1 -1 -1 -1
$$ -1 -1 -1 -1 -1 -1 -1 -1 -1 -1 -1 -1 -1 -1 -1 -1 -1 -1 -1 -1 -1 -1 -1 -1
$$ -1 -1 -1 -1 -1 -1 -1 -1 -1 -1 -1 -1 -1 -1 -1 -1 -1 -1 -1 -1 -1 -1 -1 -1
$$ -1 -1 -1 -1 -1 -1 -1 -1 -1 -1 -1 -1 -1 -1 -1 -1 -1 -1 -1 -1 -1 -1 -1 -1
$$ -1 -1 -1 -1 -1 -1 -1 -1
$$ ##$RG_tab24= (0..127)
$$ -1 -1 -1 -1 -1 -1 -1 -1 -1 -1 -1 -1 -1 -1 -1 -1 -1 -1 -1 -1 -1 -1 -1 -1
$$ -1 -1 -1 -1 -1 -1 -1 -1 -1 -1 -1 -1 -1 -1 -1 -1 -1 -1 -1 -1 -1 -1 -1 -1
$$ -1 -1 -1 -1 -1 -1 -1 -1 -1 -1 -1 -1 -1 -1 -1 -1 -1 -1 -1 -1 -1 -1 -1 -1
$$ -1 -1 -1 -1 -1 -1 -1 -1 -1 -1 -1 -1 -1 -1 -1 -1 -1 -1 -1 -1 -1 -1 -1 -1
$$ -1 -1 -1 -1 -1 -1 -1 -1 -1 -1 -1 -1 -1 -1 -1 -1 -1 -1 -1 -1 -1 -1 -1 -1
$$ -1 -1 -1 -1 -1 -1 -1 -1
$$ ##$RG_tab3= (0..127)
$$ -1 -1 -1 -1 -1 -1 -1 -1 -1 -1 -1 -1 -1 -1 -1 -1 -1 -1 -1 -1 -1 -1 -1 -1
$$ -1 -1 -1 -1 -1 -1 -1 -1 -1 -1 -1 -1 -1 -1 -1 -1 -1 -1 -1 -1 -1 -1 -1 -1
$$ -1 -1 -1 -1 -1 -1 -1 -1 -1 -1 -1 -1 -1 -1 -1 -1 -1 -1 -1 -1 -1 -1 -1 -1
$$ -1 -1 -1 -1 -1 -1 -1 -1 -1 -1 -1 -1 -1 -1 -1 -1 -1 -1 -1 -1 -1 -1 -1 -1
$$ -1 -1 -1 -1 -1 -1 -1 -1 -1 -1 -1 -1 -1 -1 -1 -1 -1 -1 -1 -1 -1 -1 -1 -1
$$ -1 -1 -1 -1 -1 -1 -1 -1
$$ ##$RG_tab4= (0..127)
$$ -1 -1 -1 -1 -1 -1 -1 -1 -1 -1 -1 -1 -1 -1 -1 -1 -1 -1 -1 -1 -1 -1 -1 -1
$$ -1 -1 -1 -1 -1 -1 -1 -1 -1 -1 -1 -1 -1 -1 -1 -1 -1 -1 -1 -1 -1 -1 -1 -1
$$ -1 -1 -1 -1 -1 -1 -1 -1 -1 -1 -1 -1 -1 -1 -1 -1 -1 -1 -1 -1 -1 -1 -1 -1
$$ -1 -1 -1 -1 -1 -1 -1 -1 -1 -1 -1 -1 -1 -1 -1 -1 -1 -1 -1 -1 -1 -1 -1 -1
$$ -1 -1 -1 -1 -1 -1 -1 -1 -1 -1 -1 -1 -1 -1 -1 -1 -1 -1 -1 -1 -1 -1 -1 -1
$$ -1 -1 -1 -1 -1 -1 -1 -1
$$ ##$RG_tab5= (0..127)
$$ -1 -1 -1 -1 -1 -1 -1 -1 -1 -1 -1 -1 -1 -1 -1 -1 -1 -1 -1 -1 -1 -1 -1 -1
$$ -1 -1 -1 -1 -1 -1 -1 -1 -1 -1 -1 -1 -1 -1 -1 -1 -1 -1 -1 -1 -1 -1 -1 -1
$$ -1 -1 -1 -1 -1 -1 -1 -1 -1 -1 -1 -1 -1 -1 -1 -1 -1 -1 -1 -1 -1 -1 -1 -1
$$ -1 -1 -1 -1 -1 -1 -1 -1 -1 -1 -1 -1 -1 -1 -1 -1 -1 -1 -1 -1 -1 -1 -1 -1
$$ -1 -1 -1 -1 -1 -1 -1 -1 -1 -1 -1 -1 -1 -1 -1 -1 -1 -1 -1 -1 -1 -1 -1 -1
$$ -1 -1 -1 -1 -1 -1 -1 -1
$$ ##$RG_tab6= (0..127)
$$ -1 -1 -1 -1 -1 -1 -1 -1 -1 -1 -1 -1 -1 -1 -1 -1 -1 -1 -1 -1 -1 -1 -1 -1
$$ -1 -1 -1 -1 -1 -1 -1 -1 -1 -1 -1 -1 -1 -1 -1 -1 -1 -1 -1 -1 -1 -1 -1 -1
$$ -1 -1 -1 -1 -1 -1 -1 -1 -1 -1 -1 -1 -1 -1 -1 -1 -1 -1 -1 -1 -1 -1 -1 -1
$$ -1 -1 -1 -1 -1 -1 -1 -1 -1 -1 -1 -1 -1 -1 -1 -1 -1 -1 -1 -1 -1 -1 -1 -1
$$ -1 -1 -1 -1 -1 -1 -1 -1 -1 -1 -1 -1 -1 -1 -1 -1 -1 -1 -1 -1 -1 -1 -1 -1
$$ -1 -1 -1 -1 -1 -1 -1 -1
$$ ##$RG_tab7= (0..127)
$$ -1 -1 -1 -1 -1 -1 -1 -1 -1 -1 -1 -1 -1 -1 -1 -1 -1 -1 -1 -1 -1 -1 -1 -1
$$ -1 -1 -1 -1 -1 -1 -1 -1 -1 -1 -1 -1 -1 -1 -1 -1 -1 -1 -1 -1 -1 -1 -1 -1
$$ -1 -1 -1 -1 -1 -1 -1 -1 -1 -1 -1 -1 -1 -1 -1 -1 -1 -1 -1 -1 -1 -1 -1 -1
$$ -1 -1 -1 -1 -1 -1 -1 -1 -1 -1 -1 -1 -1 -1 -1 -1 -1 -1 -1 -1 -1 -1 -1 -1
$$ -1 -1 -1 -1 -1 -1 -1 -1 -1 -1 -1 -1 -1 -1 -1 -1 -1 -1 -1 -1 -1 -1 -1 -1
$$ -1 -1 -1 -1 -1 -1 -1 -1
$$ ##$RG_tab8= (0..127)
$$ -1 -1 -1 -1 -1 -1 -1 -1 -1 -1 -1 -1 -1 -1 -1 -1 -1 -1 -1 -1 -1 -1 -1 -1
$$ -1 -1 -1 -1 -1 -1 -1 -1 -1 -1 -1 -1 -1 -1 -1 -1 -1 -1 -1 -1 -1 -1 -1 -1
$$ -1 -1 -1 -1 -1 -1 -1 -1 -1 -1 -1 -1 -1 -1 -1 -1 -1 -1 -1 -1 -1 -1 -1 -1
$$ -1 -1 -1 -1 -1 -1 -1 -1 -1 -1 -1 -1 -1 -1 -1 -1 -1 -1 -1 -1 -1 -1 -1 -1
$$ -1 -1 -1 -1 -1 -1 -1 -1 -1 -1 -1 -1 -1 -1 -1 -1 -1 -1 -1 -1 -1 -1 -1 -1
$$ -1 -1 -1 -1 -1 -1 -1 -1
$$ ##$RG_tab9= (0..127)
$$ -1 -1 -1 -1 -1 -1 -1 -1 -1 -1 -1 -1 -1 -1 -1 -1 -1 -1 -1 -1 -1 -1 -1 -1
$$ -1 -1 -1 -1 -1 -1 -1 -1 -1 -1 -1 -1 -1 -1 -1 -1 -1 -1 -1 -1 -1 -1 -1 -1
$$ -1 -1 -1 -1 -1 -1 -1 -1 -1 -1 -1 -1 -1 -1 -1 -1 -1 -1 -1 -1 -1 -1 -1 -1
$$ -1 -1 -1 -1 -1 -1 -1 -1 -1 -1 -1 -1 -1 -1 -1 -1 -1 -1 -1 -1 -1 -1 -1 -1
$$ -1 -1 -1 -1 -1 -1 -1 -1 -1 -1 -1 -1 -1 -1 -1 -1 -1 -1 -1 -1 -1 -1 -1 -1
$$ -1 -1 -1 -1 -1 -1 -1 -1
$$ ##$ROBOTTY= <no>
$$ ##$ROUT14= (0..7)
$$ 0 0 0 0 0 0 0 0
$$ ##$ROUTER= 0
$$ ##$RXFMAX= (0..23)
$$ 1290 1290 -1 -1 -1 -1 -1 -1 -1 -1 -1 -1 -1 -1 -1 -1 -1 -1 -1 -1 -1 -1 -1
$$ -1
$$ ##$RXFMIN= (0..23)
$$ 5 5 -1 -1 -1 -1 -1 -1 -1 -1 -1 -1 -1 -1 -1 -1 -1 -1 -1 -1 -1 -1 -1 -1
$$ ##$RheoNmrEth= <no>
$$ ##$SGUC1= (0..23)
$$ 18 17 0 0 0 0 0 0 0 0 0 0 0 0 0 0 0 0 0 0 0 0 0 0
$$ ##$SGUC2= (0..23)
$$ 33 0 0 0 0 0 0 0 0 0 0 0 0 0 0 0 0 0 0 0 0 0 0 0
$$ ##$SLCBCONF= <SHNV>
$$ ##$SPECTR= 13
$$ ##$SYNCTRIG= 0
$$ ##$SamChgEth= (0..3)
$$ <192.168.98.2> <no> <no> <no>
$$ ##$SamChgPort= (0..3)
$$ <80> <no> <no> <no>
$$ ##$SamChgProtocol= (0..3)
$$ <SOAP> <> <> <>
$$ ##$ServiceNo= <>
$$ ##$Sgu10PowerLevel= (0..7)
$$ 0 0 0 0 0 0 0 0
$$ ##$Sgu11PowerLevel= (0..7)
$$ 0 0 0 0 0 0 0 0
$$ ##$Sgu12PowerLevel= (0..7)
$$ 0 0 0 0 0 0 0 0
$$ ##$Sgu13PowerLevel= (0..7)
$$ 0 0 0 0 0 0 0 0
$$ ##$Sgu14PowerLevel= (0..7)
$$ 0 0 0 0 0 0 0 0
$$ ##$Sgu15PowerLevel= (0..7)
$$ 0 0 0 0 0 0 0 0
$$ ##$Sgu16PowerLevel= (0..7)
$$ 0 0 0 0 0 0 0 0
$$ ##$Sgu17PowerLevel= (0..7)
$$ 0 0 0 0 0 0 0 0
$$ ##$Sgu18PowerLevel= (0..7)
$$ 0 0 0 0 0 0 0 0
$$ ##$Sgu19PowerLevel= (0..7)
$$ 0 0 0 0 0 0 0 0
$$ ##$Sgu1PowerLevels= (0..7)
$$ 90 74 58 42 26 10 0 0
$$ ##$Sgu20PowerLevel= (0..7)
$$ 0 0 0 0 0 0 0 0
$$ ##$Sgu21PowerLevel= (0..7)
$$ 0 0 0 0 0 0 0 0
$$ ##$Sgu22PowerLevel= (0..7)
$$ 0 0 0 0 0 0 0 0
$$ ##$Sgu23PowerLevel= (0..7)
$$ 0 0 0 0 0 0 0 0
$$ ##$Sgu24PowerLevel= (0..7)
$$ 0 0 0 0 0 0 0 0
$$ ##$Sgu2PowerLevels= (0..7)
$$ 90 74 58 42 26 10 0 0
$$ ##$Sgu3PowerLevels= (0..7)
$$ 0 0 0 0 0 0 0 0
$$ ##$Sgu4PowerLevels= (0..7)
$$ 0 0 0 0 0 0 0 0
$$ ##$Sgu5PowerLevels= (0..7)
$$ 0 0 0 0 0 0 0 0
$$ ##$Sgu6PowerLevels= (0..7)
$$ 0 0 0 0 0 0 0 0
$$ ##$Sgu7PowerLevels= (0..7)
$$ 0 0 0 0 0 0 0 0
$$ ##$Sgu8PowerLevels= (0..7)
$$ 0 0 0 0 0 0 0 0
$$ ##$Sgu9PowerLevels= (0..7)
$$ 0 0 0 0 0 0 0 0
$$ ##$SguType= 4
$$ ##$ShimMaxVal= 247148
$$ ##$ShimPow1Ch2Sh= (0..38)
$$ 1 2 3 4 13 5 7 11 10 9 6 8 12 23 21 15 20 14 16 17 0 0 0 0 0 0 0 0 0 0
$$ 0 0 0 0 0 0 0 0 0
$$ ##$ShimPow1Imax= (0..38)
$$ 1 1 1 1 1 1 1 1 1 1 1 1 1 1 1 1 1 1 1 1 0 0 0 0 0 0 0 0 0 0 0 0 0 0 0 0
$$ 0 0 0
$$ ##$ShimPow1NChan= 20
$$ ##$ShimPow1TotIMax= 6
$$ ##$ShimPow1Vmax= (0..38)
$$ 20 20 20 20 20 20 20 20 20 20 20 20 20 20 20 20 20 20 20 20 0 0 0 0 0 0
$$ 0 0 0 0 0 0 0 0 0 0 0 0 0
$$ ##$ShimPow2Ch2Sh= (0..38)
$$ 0 0 0 0 0 0 0 0 0 0 0 0 0 0 0 0 0 0 0 0 0 0 0 0 0 0 0 0 0 0 0 0 0 0 0 0
$$ 0 0 0
$$ ##$ShimPow2Imax= (0..38)
$$ 0 0 0 0 0 0 0 0 0 0 0 0 0 0 0 0 0 0 0 0 0 0 0 0 0 0 0 0 0 0 0 0 0 0 0 0
$$ 0 0 0
$$ ##$ShimPow2NChan= 0
$$ ##$ShimPow2TotIMax= 0
$$ ##$ShimPow2Vmax= (0..38)
$$ 0 0 0 0 0 0 0 0 0 0 0 0 0 0 0 0 0 0 0 0 0 0 0 0 0 0 0 0 0 0 0 0 0 0 0 0
$$ 0 0 0
$$ ##$ShimPow3Ch2Sh= (0..38)
$$ 0 0 0 0 0 0 0 0 0 0 0 0 0 0 0 0 0 0 0 0 0 0 0 0 0 0 0 0 0 0 0 0 0 0 0 0
$$ 0 0 0
$$ ##$ShimPow3Imax= (0..38)
$$ 0 0 0 0 0 0 0 0 0 0 0 0 0 0 0 0 0 0 0 0 0 0 0 0 0 0 0 0 0 0 0 0 0 0 0 0
$$ 0 0 0
$$ ##$ShimPow3NChan= 0
$$ ##$ShimPow3TotIMax= 0
$$ ##$ShimPow3Vmax= (0..38)
$$ 0 0 0 0 0 0 0 0 0 0 0 0 0 0 0 0 0 0 0 0 0 0 0 0 0 0 0 0 0 0 0 0 0 0 0 0
$$ 0 0 0
$$ ##$ShimPow4Ch2Sh= (0..38)
$$ 0 0 0 0 0 0 0 0 0 0 0 0 0 0 0 0 0 0 0 0 0 0 0 0 0 0 0 0 0 0 0 0 0 0 0 0
$$ 0 0 0
$$ ##$ShimPow4Imax= (0..38)
$$ 0 0 0 0 0 0 0 0 0 0 0 0 0 0 0 0 0 0 0 0 0 0 0 0 0 0 0 0 0 0 0 0 0 0 0 0
$$ 0 0 0
$$ ##$ShimPow4NChan= 0
$$ ##$ShimPow4TotIMax= 0
$$ ##$ShimPow4Vmax= (0..38)
$$ 0 0 0 0 0 0 0 0 0 0 0 0 0 0 0 0 0 0 0 0 0 0 0 0 0 0 0 0 0 0 0 0 0 0 0 0
$$ 0 0 0
$$ ##$ShimPow5Ch2Sh= (0..38)
$$ 0 0 0 0 0 0 0 0 0 0 0 0 0 0 0 0 0 0 0 0 0 0 0 0 0 0 0 0 0 0 0 0 0 0 0 0
$$ 0 0 0
$$ ##$ShimPow5Imax= (0..38)
$$ 0 0 0 0 0 0 0 0 0 0 0 0 0 0 0 0 0 0 0 0 0 0 0 0 0 0 0 0 0 0 0 0 0 0 0 0
$$ 0 0 0
$$ ##$ShimPow5NChan= 0
$$ ##$ShimPow5TotIMax= 0
$$ ##$ShimPow5Vmax= (0..38)
$$ 0 0 0 0 0 0 0 0 0 0 0 0 0 0 0 0 0 0 0 0 0 0 0 0 0 0 0 0 0 0 0 0 0 0 0 0
$$ 0 0 0
$$ ##$ShimPow6Ch2Sh= (0..38)
$$ 0 0 0 0 0 0 0 0 0 0 0 0 0 0 0 0 0 0 0 0 0 0 0 0 0 0 0 0 0 0 0 0 0 0 0 0
$$ 0 0 0
$$ ##$ShimPow6Imax= (0..38)
$$ 0 0 0 0 0 0 0 0 0 0 0 0 0 0 0 0 0 0 0 0 0 0 0 0 0 0 0 0 0 0 0 0 0 0 0 0
$$ 0 0 0
$$ ##$ShimPow6NChan= 0
$$ ##$ShimPow6TotIMax= 0
$$ ##$ShimPow6Vmax= (0..38)
$$ 0 0 0 0 0 0 0 0 0 0 0 0 0 0 0 0 0 0 0 0 0 0 0 0 0 0 0 0 0 0 0 0 0 0 0 0
$$ 0 0 0
$$ ##$ShimPow7Ch2Sh= (0..38)
$$ 0 0 0 0 0 0 0 0 0 0 0 0 0 0 0 0 0 0 0 0 0 0 0 0 0 0 0 0 0 0 0 0 0 0 0 0
$$ 0 0 0
$$ ##$ShimPow7Imax= (0..38)
$$ 0 0 0 0 0 0 0 0 0 0 0 0 0 0 0 0 0 0 0 0 0 0 0 0 0 0 0 0 0 0 0 0 0 0 0 0
$$ 0 0 0
$$ ##$ShimPow7NChan= 0
$$ ##$ShimPow7TotIMax= 0
$$ ##$ShimPow7Vmax= (0..38)
$$ 0 0 0 0 0 0 0 0 0 0 0 0 0 0 0 0 0 0 0 0 0 0 0 0 0 0 0 0 0 0 0 0 0 0 0 0
$$ 0 0 0
$$ ##$ShimPow8Ch2Sh= (0..38)
$$ 0 0 0 0 0 0 0 0 0 0 0 0 0 0 0 0 0 0 0 0 0 0 0 0 0 0 0 0 0 0 0 0 0 0 0 0
$$ 0 0 0
$$ ##$ShimPow8Imax= (0..38)
$$ 0 0 0 0 0 0 0 0 0 0 0 0 0 0 0 0 0 0 0 0 0 0 0 0 0 0 0 0 0 0 0 0 0 0 0 0
$$ 0 0 0
$$ ##$ShimPow8NChan= 0
$$ ##$ShimPow8TotIMax= 0
$$ ##$ShimPow8Vmax= (0..38)
$$ 0 0 0 0 0 0 0 0 0 0 0 0 0 0 0 0 0 0 0 0 0 0 0 0 0 0 0 0 0 0 0 0 0 0 0 0
$$ 0 0 0
$$ ##$ShimPowMaxUA= (0..63)
$$ 130000 130000 130000 130000 130000 130000 130000 130000 130000 130000 130000
$$ 130000 130000 130000 130000 130000 130000 130000 130000 130000 0 0 0 0
$$ 0 0 0 0 0 0 0 0 0 0 0 0 0 0 0 0 0 0 0 0 0 0 0 0 0 0 0 0 0 0 0 0 0 0 0 0
$$ 0 0 0 0
$$ ##$ShimPowMaxUG= (0..63)
$$ 524287 524287 524287 524287 524287 524287 524287 524287 524287 524287 524287
$$ 524287 524287 524287 524287 524287 524287 524287 524287 524287 0 0 0 0
$$ 0 0 0 0 0 0 0 0 0 0 0 0 0 0 0 0 0 0 0 0 0 0 0 0 0 0 0 0 0 0 0 0 0 0 0 0
$$ 0 0 0 0
$$ ##$ShimPowNum= 1
$$ ##$ShimPowRcbType= 3
$$ ##$ShimPowRes= (0..63)
$$ 1e-20 1e-20 1e-20 1e-20 1e-20 1e-20 1e-20 1e-20 1e-20 1e-20 1e-20 1e-20
$$ 1e-20 1e-20 1e-20 1e-20 1e-20 1e-20 1e-20 1e-20 0 0 0 0 0 0 0 0 0 0 0 0
$$ 0 0 0 0 0 0 0 0 0 0 0 0 0 0 0 0 0 0 0 0 0 0 0 0 0 0 0 0 0 0 0 0
$$ ##$ShimPowRng0= (0..63)
$$ 1 1 1 1 1 1 1 1 1 1 1 1 1 1 1 1 1 1 1 1 0 0 0 0 0 0 0 0 0 0 0 0 0 0 0 0
$$ 0 0 0 0 0 0 0 0 0 0 0 0 0 0 0 0 0 0 0 0 0 0 0 0 0 0 0 0
$$ ##$ShimPowRng1= (0..63)
$$ 1 1 1 1 1 1 1 1 1 1 1 1 1 1 1 1 1 1 1 1 0 0 0 0 0 0 0 0 0 0 0 0 0 0 0 0
$$ 0 0 0 0 0 0 0 0 0 0 0 0 0 0 0 0 0 0 0 0 0 0 0 0 0 0 0 0
$$ ##$ShimPowRng2= (0..63)
$$ 1 1 1 1 1 1 1 1 1 1 1 1 1 1 1 1 1 1 1 1 0 0 0 0 0 0 0 0 0 0 0 0 0 0 0 0
$$ 0 0 0 0 0 0 0 0 0 0 0 0 0 0 0 0 0 0 0 0 0 0 0 0 0 0 0 0
$$ ##$ShimPowRng3= (0..63)
$$ 1 1 1 1 1 1 1 1 1 1 1 1 1 1 1 1 1 1 1 1 0 0 0 0 0 0 0 0 0 0 0 0 0 0 0 0
$$ 0 0 0 0 0 0 0 0 0 0 0 0 0 0 0 0 0 0 0 0 0 0 0 0 0 0 0 0
$$ ##$ShimPowType1= 8
$$ ##$ShimPowType2= 0
$$ ##$ShimPowType3= 0
$$ ##$ShimPowType4= 0
$$ ##$ShimPowType5= 0
$$ ##$ShimPowType6= 0
$$ ##$ShimPowType7= 0
$$ ##$ShimPowType8= 0
$$ ##$ShimSysActGrad= (0..63)
$$ 1 2 3 4 13 5 7 11 10 9 6 8 12 20 21 15 23 14 16 17 0 0 0 0 0 0 0 0 0 0
$$ 0 0 0 0 0 0 0 0 0 0 0 0 0 0 0 0 0 0 0 0 0 0 0 0 0 0 0 0 0 0 0 0 0 0
$$ ##$ShimSysAngle= <>
$$ ##$ShimSysFunc= (0..63)
$$ 1 2 3 4 5 7 9 11 15 16 8 10 12 14 6 17 13 18 19 20 0 0 0 0 0 0 0 0 0 0
$$ 0 0 0 0 0 0 0 0 0 0 0 0 0 0 0 0 0 0 0 0 0 0 0 0 0 0 0 0 0 0 0 0 0 0
$$ ##$ShimSysMatId= <BOSS1>
$$ ##$ShimSysMatrix= 1
$$ ##$ShimSysMinMaxUG= 247148
$$ ##$ShimSysOffset= <771 (SHIM UPPER PART!!!)>
$$ ##$ShimSysType= 1
$$ ##$ShimUnit= 3
$$ ##$SpectrOsVersion= <4.1.166.20220113>
$$ ##$TCubeEth= <192.168.180.38>
$$ ##$TCubeSeqDevice= <>
$$ ##$TOSITY= <no>
$$ ##$TRIPLO2= 0
$$ ##$TopSpinVersion= <TopSpin 4.1.4>
$$ ##$TrxFreqFormula= (0..23)
$$ <TrxFreqFormula(2.0,400130000.000000,'TRX',Trx(1.0,'TRX 1200.1',1,5.000000,1290.000000))>
$$ <TrxFreqFormula(2.0,400130000.000000,'TRX',Trx(1.0,'TRX 1200.2',1,5.000000,1290.000000))>
$$ <> <> <> <> <> <> <> <> <> <> <> <> <> <> <> <> <> <> <> <> <> <>
$$ ##$TrxPN= (0..23)
$$ <Z148391> <Z148391> <> <> <> <> <> <> <> <> <> <> <> <> <> <> <> <> <>
$$ <> <> <> <> <>
$$ ##$TrxSN= (0..23)
$$ <00763> <00728> <> <> <> <> <> <> <> <> <> <> <> <> <> <> <> <> <> <> <>
$$ <> <> <>
$$ ##$VCubeEth= (0..23)
$$ <no> <no> <no> <no> <no> <no> <no> <no> <no> <no> <no> <no> <no> <no> <no>
$$ <no> <no> <no> <no> <no> <no> <no> <no> <no>
$$ ##$VTU= 2
$$ ##$VTUETH= <192.168.99.11>
$$ ##$VTUTY= <no>
$$ ##$ValueLine= no
$$ ##$VpuPN= (0..23)
$$ <no> <no> <no> <no> <no> <no> <no> <no> <no> <no> <no> <no> <no> <no> <no>
$$ <no> <no> <no> <no> <no> <no> <no> <no> <no>
$$ ##$VpuSN= (0..23)
$$ <no> <no> <no> <no> <no> <no> <no> <no> <no> <no> <no> <no> <no> <no> <no>
$$ <no> <no> <no> <no> <no> <no> <no> <no> <no>
$$ ##$WBREFAM= (0..31)
$$ 100 100 100 100 100 100 100 100 100 100 100 100 100 100 100 100 100 100
$$ 100 100 100 100 100 100 100 100 100 100 100 100 100 100
$$ ##$WBREFLM= (0..31)
$$ 1 0 0 0 0 0 0 0 0 0 0 0 0 0 0 0 0 0 0 0 0 0 0 0 0 0 0 0 0 0 0 0
$$ ##$WBREFPH= (0..31)
$$ -0.07 0 0 0 0 0 0 0 0 0 0 0 0 0 0 0 0 0 0 0 0 0 0 0 0 0 0 0 0 0 0 0
$$ ##$WBSGU= (0..31)
$$ 1 1 2 0 0 0 0 0 0 0 0 0 0 0 0 0 0 0 0 0 0 0 0 0 0 0 0 0 0 0 0 0
$$ ##END=
##$RELAX= 
##$BRUKER FILE PROC=intrng
$$ P 0
$$ 208.768111   208.443129
$$ 77.670107   77.413732
$$ 77.410121   77.305404
$$ 77.301793   77.020141
$$ 77.016531   76.677104
$$ 43.727474   43.568593
$$ 43.564982   43.304996
$$ 43.301385   43.113617
$$ 31.435907   31.284249
$$ 31.280638   31.204808
$$ 31.201198   31.056761
$$ 31.053150   30.865382
$$ 29.670168   29.294633
$$ 23.603825   23.412447
$$ 23.408836   23.217457
$$ 23.213846   23.033300
$$ 22.553048   22.354447
$$ 22.350836   22.134181
$$ 22.130570   21.957246
$$ 13.919342   13.771294
$$ 13.767683   13.464366
##$RELAX= 
##$BRUKER FILE PROC=peaklist.xml
$$ <?xml version="1.0" encoding="UTF-8"?>
$$ <PeakList>
$$   <PeakList1D>
$$     <PeakList1DHeader creator="nmrsu" date="2023-07-06T20:19:33.987+02:00" expNo="2" name="9b088efaa05c_reference_110-43-0" owner="" procNo="1" source="/opt/data/apprentis.isic@epfl.ch/nmr">
$$       <PeakPickDetails>F1=218.322601ppm, F2=-18.322548ppm, MI=0.00cm, MAXI=10000.00cm, PC=1.000
$$       </PeakPickDetails>
$$     </PeakList1DHeader>
$$     <Peak1D F1="211.229431" intensity="2.584081e-02" type="0"/>
$$     <Peak1D F1="208.635513" intensity="2.011002e+00" type="0"/>
$$     <Peak1D F1="208.427475" intensity="3.328898e-02" type="0"/>
$$     <Peak1D F1="208.365051" intensity="2.605838e-02" type="0"/>
$$     <Peak1D F1="93.231644" intensity="2.445131e-02" type="0"/>
$$     <Peak1D F1="91.855881" intensity="2.638749e-02" type="0"/>
$$     <Peak1D F1="77.504242" intensity="1.070634e+00" type="0"/>
$$     <Peak1D F1="77.378242" intensity="3.783005e-02" type="0"/>
$$     <Peak1D F1="77.184143" intensity="1.110536e+00" type="0"/>
$$     <Peak1D F1="76.864311" intensity="1.071171e+00" type="0"/>
$$     <Peak1D F1="60.206169" intensity="2.493802e-02" type="0"/>
$$     <Peak1D F1="43.600147" intensity="8.425164e-02" type="0"/>
$$     <Peak1D F1="43.541344" intensity="3.204548e-02" type="0"/>
$$     <Peak1D F1="43.527336" intensity="3.494734e-02" type="0"/>
$$     <Peak1D F1="43.519550" intensity="4.347819e-02" type="0"/>
$$     <Peak1D F1="43.498264" intensity="1.253208e-01" type="0"/>
$$     <Peak1D F1="43.491425" intensity="8.355165e-02" type="0"/>
$$     <Peak1D F1="43.483372" intensity="8.049614e-02" type="0"/>
$$     <Peak1D F1="43.476601" intensity="1.065551e-01" type="0"/>
$$     <Peak1D F1="43.468884" intensity="1.262111e-01" type="0"/>
$$     <Peak1D F1="43.461323" intensity="1.860727e-01" type="0"/>
$$     <Peak1D F1="43.431873" intensity="1.221706e+01" type="0"/>
$$     <Peak1D F1="43.401375" intensity="1.917650e-01" type="0"/>
$$     <Peak1D F1="43.393818" intensity="1.365368e-01" type="0"/>
$$     <Peak1D F1="43.386635" intensity="1.094976e-01" type="0"/>
$$     <Peak1D F1="43.379173" intensity="8.306579e-02" type="0"/>
$$     <Peak1D F1="43.371502" intensity="6.456855e-02" type="0"/>
$$     <Peak1D F1="43.357876" intensity="1.059941e-01" type="0"/>
$$     <Peak1D F1="43.343235" intensity="3.952341e-02" type="0"/>
$$     <Peak1D F1="43.321091" intensity="2.883467e-02" type="0"/>
$$     <Peak1D F1="43.314022" intensity="3.309341e-02" type="0"/>
$$     <Peak1D F1="43.299664" intensity="3.663437e-02" type="0"/>
$$     <Peak1D F1="43.254627" intensity="7.403977e-02" type="0"/>
$$     <Peak1D F1="43.220592" intensity="9.621729e-02" type="0"/>
$$     <Peak1D F1="32.440052" intensity="2.671997e-02" type="0"/>
$$     <Peak1D F1="31.567339" intensity="2.881761e-02" type="0"/>
$$     <Peak1D F1="31.473667" intensity="2.855240e-02" type="0"/>
$$     <Peak1D F1="31.452480" intensity="3.390798e-02" type="0"/>
$$     <Peak1D F1="31.386948" intensity="2.960976e-02" type="0"/>
$$     <Peak1D F1="31.343744" intensity="4.055013e-02" type="0"/>
$$     <Peak1D F1="31.329132" intensity="1.861740e-01" type="0"/>
$$     <Peak1D F1="31.307749" intensity="4.042425e-02" type="0"/>
$$     <Peak1D F1="31.293276" intensity="4.387167e-02" type="0"/>
$$     <Peak1D F1="31.286125" intensity="5.482650e-02" type="0"/>
$$     <Peak1D F1="31.278946" intensity="4.329582e-02" type="0"/>
$$     <Peak1D F1="31.264318" intensity="4.601696e-02" type="0"/>
$$     <Peak1D F1="31.257322" intensity="5.819932e-02" type="0"/>
$$     <Peak1D F1="31.242794" intensity="7.139880e-02" type="0"/>
$$     <Peak1D F1="31.235361" intensity="7.928853e-02" type="0"/>
$$     <Peak1D F1="31.228378" intensity="8.685040e-02" type="0"/>
$$     <Peak1D F1="31.221001" intensity="1.080433e-01" type="0"/>
$$     <Peak1D F1="31.213921" intensity="1.078908e-01" type="0"/>
$$     <Peak1D F1="31.206585" intensity="1.403980e-01" type="0"/>
$$     <Peak1D F1="31.199209" intensity="1.786771e-01" type="0"/>
$$     <Peak1D F1="31.192101" intensity="2.436222e-01" type="0"/>
$$     <Peak1D F1="31.184624" intensity="3.604272e-01" type="0"/>
$$     <Peak1D F1="31.176992" intensity="6.996419e-01" type="0"/>
$$     <Peak1D F1="31.160490" intensity="1.500000e+01" type="0"/>
$$     <Peak1D F1="31.146639" intensity="8.138149e-01" type="0"/>
$$     <Peak1D F1="31.138783" intensity="3.932981e-01" type="0"/>
$$     <Peak1D F1="31.131096" intensity="2.440799e-01" type="0"/>
$$     <Peak1D F1="31.123703" intensity="1.749209e-01" type="0"/>
$$     <Peak1D F1="31.116411" intensity="1.342747e-01" type="0"/>
$$     <Peak1D F1="31.109261" intensity="9.966370e-02" type="0"/>
$$     <Peak1D F1="31.101912" intensity="8.045029e-02" type="0"/>
$$     <Peak1D F1="31.094646" intensity="6.743004e-02" type="0"/>
$$     <Peak1D F1="31.087496" intensity="7.198491e-02" type="0"/>
$$     <Peak1D F1="31.080217" intensity="5.573957e-02" type="0"/>
$$     <Peak1D F1="31.072897" intensity="5.641228e-02" type="0"/>
$$     <Peak1D F1="31.065887" intensity="4.620023e-02" type="0"/>
$$     <Peak1D F1="31.058523" intensity="4.100708e-02" type="0"/>
$$     <Peak1D F1="31.051176" intensity="4.806438e-02" type="0"/>
$$     <Peak1D F1="31.044601" intensity="3.042373e-02" type="0"/>
$$     <Peak1D F1="30.985600" intensity="1.660407e-01" type="0"/>
$$     <Peak1D F1="29.674597" intensity="5.052793e-02" type="0"/>
$$     <Peak1D F1="29.600065" intensity="2.968480e-02" type="0"/>
$$     <Peak1D F1="29.555267" intensity="5.912266e-02" type="0"/>
$$     <Peak1D F1="29.488213" intensity="8.313283e+00" type="0"/>
$$     <Peak1D F1="29.415668" intensity="6.142186e-02" type="0"/>
$$     <Peak1D F1="29.276464" intensity="4.783905e-02" type="0"/>
$$     <Peak1D F1="23.484396" intensity="1.493031e-01" type="0"/>
$$     <Peak1D F1="23.461052" intensity="3.195426e-02" type="0"/>
$$     <Peak1D F1="23.446735" intensity="2.912368e-02" type="0"/>
$$     <Peak1D F1="23.439697" intensity="3.055758e-02" type="0"/>
$$     <Peak1D F1="23.431898" intensity="3.269715e-02" type="0"/>
$$     <Peak1D F1="23.417778" intensity="4.036638e-02" type="0"/>
$$     <Peak1D F1="23.410627" intensity="3.681824e-02" type="0"/>
$$     <Peak1D F1="23.403519" intensity="4.549679e-02" type="0"/>
$$     <Peak1D F1="23.395987" intensity="5.156793e-02" type="0"/>
$$     <Peak1D F1="23.388947" intensity="6.265773e-02" type="0"/>
$$     <Peak1D F1="23.381626" intensity="6.973871e-02" type="0"/>
$$     <Peak1D F1="23.374392" intensity="8.836439e-02" type="0"/>
$$     <Peak1D F1="23.367098" intensity="1.121520e-01" type="0"/>
$$     <Peak1D F1="23.359890" intensity="1.638089e-01" type="0"/>
$$     <Peak1D F1="23.352386" intensity="2.230097e-01" type="0"/>
$$     <Peak1D F1="23.344671" intensity="4.126990e-01" type="0"/>
$$     <Peak1D F1="23.323387" intensity="1.460140e+01" type="0"/>
$$     <Peak1D F1="23.307137" intensity="6.669774e-01" type="0"/>
$$     <Peak1D F1="23.299408" intensity="3.786997e-01" type="0"/>
$$     <Peak1D F1="23.291706" intensity="2.243335e-01" type="0"/>
$$     <Peak1D F1="23.284443" intensity="1.538093e-01" type="0"/>
$$     <Peak1D F1="23.277094" intensity="1.304206e-01" type="0"/>
$$     <Peak1D F1="23.269815" intensity="9.873708e-02" type="0"/>
$$     <Peak1D F1="23.262819" intensity="7.439286e-02" type="0"/>
$$     <Peak1D F1="23.255217" intensity="7.056126e-02" type="0"/>
$$     <Peak1D F1="23.248276" intensity="5.991749e-02" type="0"/>
$$     <Peak1D F1="23.240871" intensity="6.870287e-02" type="0"/>
$$     <Peak1D F1="23.219078" intensity="5.091425e-02" type="0"/>
$$     <Peak1D F1="23.212152" intensity="5.044142e-02" type="0"/>
$$     <Peak1D F1="23.139299" intensity="1.635420e-01" type="0"/>
$$     <Peak1D F1="23.125463" intensity="3.047773e-02" type="0"/>
$$     <Peak1D F1="23.117819" intensity="3.073313e-02" type="0"/>
$$     <Peak1D F1="22.655762" intensity="2.598598e-02" type="0"/>
$$     <Peak1D F1="22.533272" intensity="2.918953e-02" type="0"/>
$$     <Peak1D F1="22.496937" intensity="3.089418e-02" type="0"/>
$$     <Peak1D F1="22.489702" intensity="2.664318e-02" type="0"/>
$$     <Peak1D F1="22.467838" intensity="3.662936e-02" type="0"/>
$$     <Peak1D F1="22.453339" intensity="3.381433e-02" type="0"/>
$$     <Peak1D F1="22.424465" intensity="1.055334e-01" type="0"/>
$$     <Peak1D F1="22.417597" intensity="1.113056e-01" type="0"/>
$$     <Peak1D F1="22.388666" intensity="4.081614e-02" type="0"/>
$$     <Peak1D F1="22.381840" intensity="3.229100e-02" type="0"/>
$$     <Peak1D F1="22.367071" intensity="3.285499e-02" type="0"/>
$$     <Peak1D F1="22.352543" intensity="4.124346e-02" type="0"/>
$$     <Peak1D F1="22.345236" intensity="3.804262e-02" type="0"/>
$$     <Peak1D F1="22.338255" intensity="4.873652e-02" type="0"/>
$$     <Peak1D F1="22.330919" intensity="4.750619e-02" type="0"/>
$$     <Peak1D F1="22.323345" intensity="5.827129e-02" type="0"/>
$$     <Peak1D F1="22.316294" intensity="6.972588e-02" type="0"/>
$$     <Peak1D F1="22.309324" intensity="8.721969e-02" type="0"/>
$$     <Peak1D F1="22.301949" intensity="1.038621e-01" type="0"/>
$$     <Peak1D F1="22.294867" intensity="1.115535e-01" type="0"/>
$$     <Peak1D F1="22.286997" intensity="1.714111e-01" type="0"/>
$$     <Peak1D F1="22.271791" intensity="5.639367e-01" type="0"/>
$$     <Peak1D F1="22.255472" intensity="1.464357e+01" type="0"/>
$$     <Peak1D F1="22.077267" intensity="1.200434e-01" type="0"/>
$$     <Peak1D F1="13.928411" intensity="3.236982e-02" type="0"/>
$$     <Peak1D F1="13.898932" intensity="3.265952e-02" type="0"/>
$$     <Peak1D F1="13.841552" intensity="2.936482e-02" type="0"/>
$$     <Peak1D F1="13.806853" intensity="8.554000e-02" type="0"/>
$$     <Peak1D F1="13.783792" intensity="4.169605e-02" type="0"/>
$$     <Peak1D F1="13.776852" intensity="3.307153e-02" type="0"/>
$$     <Peak1D F1="13.769531" intensity="3.971207e-02" type="0"/>
$$     <Peak1D F1="13.762140" intensity="3.605027e-02" type="0"/>
$$     <Peak1D F1="13.754989" intensity="4.089997e-02" type="0"/>
$$     <Peak1D F1="13.747851" intensity="5.092766e-02" type="0"/>
$$     <Peak1D F1="13.740460" intensity="6.057147e-02" type="0"/>
$$     <Peak1D F1="13.733493" intensity="5.386798e-02" type="0"/>
$$     <Peak1D F1="13.726102" intensity="5.522867e-02" type="0"/>
$$     <Peak1D F1="13.718753" intensity="6.908092e-02" type="0"/>
$$     <Peak1D F1="13.711728" intensity="7.822373e-02" type="0"/>
$$     <Peak1D F1="13.704520" intensity="8.215954e-02" type="0"/>
$$     <Peak1D F1="13.697158" intensity="1.068021e-01" type="0"/>
$$     <Peak1D F1="13.689908" intensity="1.326411e-01" type="0"/>
$$     <Peak1D F1="13.682657" intensity="1.577708e-01" type="0"/>
$$     <Peak1D F1="13.675168" intensity="2.258514e-01" type="0"/>
$$     <Peak1D F1="13.667424" intensity="3.689953e-01" type="0"/>
$$     <Peak1D F1="13.644489" intensity="1.285708e+01" type="0"/>
$$     <Peak1D F1="13.622457" intensity="3.767932e-01" type="0"/>
$$     <Peak1D F1="13.614756" intensity="2.045106e-01" type="0"/>
$$     <Peak1D F1="13.607153" intensity="1.404863e-01" type="0"/>
$$     <Peak1D F1="13.599916" intensity="1.273221e-01" type="0"/>
$$     <Peak1D F1="13.592610" intensity="8.983239e-02" type="0"/>
$$     <Peak1D F1="13.585402" intensity="7.905862e-02" type="0"/>
$$     <Peak1D F1="13.578040" intensity="6.671088e-02" type="0"/>
$$     <Peak1D F1="13.571015" intensity="6.453371e-02" type="0"/>
$$     <Peak1D F1="13.563892" intensity="5.464989e-02" type="0"/>
$$     <Peak1D F1="13.556558" intensity="4.434833e-02" type="0"/>
$$     <Peak1D F1="13.549294" intensity="3.423538e-02" type="0"/>
$$     <Peak1D F1="13.527614" intensity="3.903855e-02" type="0"/>
$$     <Peak1D F1="13.498825" intensity="3.061635e-02" type="0"/>
$$     <Peak1D F1="13.462660" intensity="7.918780e-02" type="0"/>
$$     <Peak1D F1="-11.817860" intensity="2.647692e-02" type="0"/>
$$   </PeakList1D>
$$ </PeakList>
##$RELAX= 
##$BRUKER FILE PROC=peakrng
$$ P    #regions in PPM
$$ # 2023-07-06 20:19:33 +0200  nmrsu@nmrf492r
$$ # low field   high field   mi   maxi
$$   218.322601318359  -18.3225486578211  0.000  10000.000  # for region 1
##$RELAX= 
$$ Bruker specific parameters
$$ --------------------------
##$DATPATH= </opt/data/apprentis.isic@epfl.ch/nmr>
##$EXPNO= 2
##$NAME= <9b088efaa05c_reference_110-43-0>
##$PROCNO= 1
##$ACQT0= -1.70581753891579
##$AMP= (0..31)
100 100 100 100 100 100 100 100 100 100 100 100 100 100 100 100 100 100
100 100 100 100 100 100 100 100 100 100 100 100 100 100
##$AMPCOIL= (0..32)
-1 0 0 0 0 0 0 0 0 0 0 0 0 0 0 0 0 0 0 0 0 0 0 0 0 0 0 0 0 0 0 0 0
##$AQSEQ= 0
##$AQ_mod= 3
##$AUNM= <au_zg>
##$AUTOPOS= <4 >
##$BF1= 100.612769
##$BF2= 400.13
##$BF3= 400.13
##$BF4= 400.13
##$BF5= 400.13
##$BF6= 400.13
##$BF7= 400.13
##$BF8= 400.13
##$BWFAC= (0..63)
0 0 0 0 0 0 0 0 0 0 0 0 0 0 0 0 0 0 0 0 0 0 0 0 0 0 0 0 0 0 0 0 0 0 0 0
0 0 0 0 0 0 0 0 0 0 0 0 0 0 0 0 0 0 0 0 0 0 0 0 0 0 0 0
##$BYTORDA= 0
##$CHANFCU= (0..24)
0 2 1 0 0 0 0 0 0 0 0 0 0 0 0 0 0 0 0 0 0 0 0 0 0
##$CHANREC= (0..24)
0 2 1 0 0 0 0 0 0 0 0 0 0 0 0 0 0 0 0 0 0 0 0 0 0
##$CHEMSTR= <none>
##$CNST= (0..63)
1 1 1 1 1 1 1 1 1 1 1 1 1 1 1 1 1 1 1 1 1 1 1 1 1 1 1 1 1 1 1 1 1 1 1 1
1 1 1 1 1 1 1 1 1 1 1 1 1 1 1 1 1 1 1 1 1 1 1 1 1 1 1 1
##$CPDPRG= (0..8)
<> <> <waltz16> <> <> <> <> <> <>
##$D= (0..63)
0 2 0 0 0 0 0 0 0 0 0 0.03 0 0 0 0 0.0002 0 0 0 0 0 0 0 0 0 0 0 0 0 0 0
0 0 0 0 0 0 0 0 0 0 0 0 0 0 0 0 0 0 0 0 0 0 0 0 0 0 0 0 0 0 0 0
##$DATE= 1688667580
##$DATE_START= 1688666683
##$DE= 8.794183
##$DECBNUC= <off>
##$DECIM= 840
##$DECNUC= <off>
##$DECSTAT= 4
##$DIGMOD= 3
##$DIGTYP= 17
##$DR= 32
##$DS= 4
##$DSPFIRM= 4
##$DSPFVS= 21
##$DTYPA= 2
##$EXP= <refe_13Ccpd>
##$ExpStatus= 4
##$FCUCHAN= (0..9)
0 2 1 0 0 0 0 0 0 0
##$FILCOR= 0
##$FL1= 0
##$FL2= 0
##$FL3= 0
##$FL4= 0
##$FN_INDIRECT= (0..7)
0 0 0 0 0 0 0 0
##$FOV= 0
##$FQ1LIST= <>
##$FQ2LIST= <>
##$FQ3LIST= <>
##$FQ4LIST= <>
##$FQ5LIST= <>
##$FQ6LIST= <>
##$FQ7LIST= <>
##$FQ8LIST= <>
##$FS= (0..7)
83 83 83 83 83 83 83 83
##$FTLPGN= 0
##$FW= 2.4e+08
##$FnILOOP= 0
##$FnMODE= 0
##$FnTYPE= 0
##$GPNAM= (0..31)
<> <> <> <> <> <> <> <> <> <> <> <> <> <> <> <> <> <> <> <> <> <> <> <>
<> <> <> <> <> <> <> <>
##$GPX= (0..31)
0 0 0 0 0 0 0 0 0 0 0 0 0 0 0 0 0 0 0 0 0 0 0 0 0 0 0 0 0 0 0 0
##$GPY= (0..31)
0 0 0 0 0 0 0 0 0 0 0 0 0 0 0 0 0 0 0 0 0 0 0 0 0 0 0 0 0 0 0 0
##$GPZ= (0..31)
0 0 0 0 0 0 0 0 0 0 0 0 0 0 0 0 0 0 0 0 0 0 0 0 0 0 0 0 0 0 0 0
##$GRPDLY= 76
##$HDDUTY= 20
##$HDRATE= 1
##$HGAIN= (0..3)
0 0 0 0
##$HL1= 0
##$HL2= 0
##$HL3= 0
##$HL4= 0
##$HOLDER= 4
##$HPMOD= (0..32)
0 0 0 0 0 0 0 0 0 0 0 0 0 0 0 0 0 0 0 0 0 0 0 0 0 0 0 0 0 0 0 0 0
##$HPPRGN= 0
##$IN= (0..63)
0 0 0 0 0 0 0 0 0 0 0 0 0 0 0 0 0 0 0 0 0 0 0 0 0 0 0 0 0 0 0 0 0 0 0 0
0 0 0 0 0 0 0 0 0 0 0 0 0 0 0 0 0 0 0 0 0 0 0 0 0 0 0 0
##$INF= (0..7)
0 0 0 0 0 0 0 0
##$INP= (0..63)
0 0 0 0 0 0 0 0 0 0 0 0 0 0 0 0 0 0 0 0 0 0 0 0 0 0 0 0 0 0 0 0 0 0 0 0
0 0 0 0 0 0 0 0 0 0 0 0 0 0 0 0 0 0 0 0 0 0 0 0 0 0 0 0
##$INSTRUM= <AV4 400 MHZ>
##$INTEGFAC= (0..63)
0 0 0 0 0 0 0 0 0 0 0 0 0 0 0 0 0 0 0 0 0 0 0 0 0 0 0 0 0 0 0 0 0 0 0 0
0 0 0 0 0 0 0 0 0 0 0 0 0 0 0 0 0 0 0 0 0 0 0 0 0 0 0 0
##$L= (0..31)
1 1 1 1 1 1 1 1 1 1 1 1 1 1 1 1 1 1 1 1 1 1 1 1 1 1 1 1 1 1 1 1
##$LFILTER= 100
##$LGAIN= -12
##$LINPSTP= 0
##$LOCKED= yes
##$LOCKFLD= 6784
##$LOCKGN= 132.368148803711
##$LOCKPOW= -30
##$LOCKPPM= 7.23999977111816
##$LOCNUC= <2H>
##$LOCPHAS= 341.1
##$LOCSHFT= yes
##$LOCSW= 0
##$LTIME= 0.400000005960464
##$MASR= 4200
##$MULEXPNO= (0..15)
0 0 0 0 0 0 0 0 0 0 0 0 0 0 0 0
##$NBL= 1
##$NC= 0
##$NLOGCH= 2
##$NOVFLW= 0
##$NS= 256
##$NUC1= <13C>
##$NUC2= <1H>
##$NUC3= <off>
##$NUC4= <off>
##$NUC5= <off>
##$NUC6= <off>
##$NUC7= <off>
##$NUC8= <off>
##$NUCLEUS= <off>
##$NUSLIST= <automatic>
##$NusAMOUNT= 100
##$NusFPNZ= no
##$NusJSP= 0
##$NusSEED= 54321
##$NusSPTYPE= 0
##$NusT2= 1
##$NusTD= 0
##$O1= 10061.2769
##$O2= 1600.52
##$O3= 1880.61
##$O4= 1880.61
##$O5= 1880.61
##$O6= 1880.61
##$O7= 1880.61
##$O8= 1880.61
##$OVERFLW= 0
##$P= (0..63)
3.333333 10 20 14 28 16.5 25 50 525 30 60 40000 40000 2000 0 0 1000 2000
500 600 2500 0 0 0 1000 0 500 10 1000 2000 0 0 5550 0 0 0 80000 0 0 2550
4000 0 0 10000 1110 0 40000 1575 3000 3900 3150 0 2119 20000 525 0 0 0
0 0 0 0 0 2100
##$PACOIL= (0..32)
2 3 1 0 0 0 0 0 0 0 0 0 0 0 0 0 0 0 0 0 0 0 0 0 0 0 0 0 0 0 0 0 0
##$PAPS= 0
##$PARMODE= 0
##$PCPD= (0..9)
0 80 90 0 0 0 0 0 0 0
##$PEXSEL= (0..9)
1 1 1 1 1 1 1 1 1 1
##$PHCOR= (0..31)
0 0 0 0 0 0 0 0 0 0 0 0 0 0 0 0 0 0 0 0 0 0 0 0 0 0 0 0 0 0 0 0
##$PHLIST= <>
##$PH_ref= 0
##$PL= (0..63)
120 120 120 120 120 120 120 120 120 120 120 120 120 120 120 120 120 120
120 120 120 120 120 120 120 120 120 120 120 120 120 120 120 120 120 120
120 120 120 120 120 120 120 120 120 120 120 120 120 120 120 120 120 120
120 120 120 120 120 120 120 120 120 120
##$PLSTEP= 0.1
##$PLSTRT= -6
##$PLW= (0..63)
0 53.518 13.806 0 0 0 0 0 0 0 8.5629 0.34252 0.33407 0.16804 0 3.0066 0
0 53.518 0.83622 0 0.00010824 0 0 0.0017318 0 0.083518 0 0 8.5629 0.33407
1.3363 0 0 0 0 0 0 0 0 0 0 0 0 0 0 0 0 0 0 0 0 0 0 0 0 0 0 0 0 0 0 0 0
##$PLWMAX= (0..7)
541.0441 105.5741 0 0 0 0 0 0
##$PQPHASE= 0
##$PQSCALE= 1
##$PR= 1
##$PRECHAN= (0..32)
-1 2 -1 0 1 -1 -1 -1 -1 -1 -1 -1 -1 -1 -1 -1 -1 -1 -1 -1 -1 -1 -1 -1 -1
-1 -1 -1 -1 -1 -1 -1 -1
##$PROBHD= <Z108618_0808 (PA BBO 400S1 BBF-H-D-05 Z)>
##$PROBINPUTS= (0..15)
<19F-109Ag> <1H> <2H> <> <> <> <> <> <> <> <> <> <> <> <> <>
##$PULPROG= <zgpg30>
##$PW= 0
##$PYNM= <>
##$ProjAngle= 0
##$QNP= 0
##$RECCHAN= (0..9)
0 2 1 0 0 0 0 0 0 0
##$RECPH= 0
##$RECPRE= (0..24)
-1 0 2 -1 -1 -1 -1 -1 -1 -1 -1 -1 -1 -1 -1 -1 -1 -1 -1 -1 -1 -1 -1 -1 -1
##$RECPRFX= (0..32)
1 0 1 0 0 0 0 0 0 0 0 0 0 0 0 0 0 0 0 0 0 0 0 0 0 0 0 0 0 0 0 0 0
##$RECSEL= (0..24)
0 1 2 0 0 0 0 0 0 0 0 0 0 0 0 0 0 0 0 0 0 0 0 0 0
##$RG= 57
##$RO= 0
##$RSEL= (0..24)
0 1 2 0 0 0 0 0 0 0 0 0 0 0 0 0 0 0 0 0 0 0 0 0 0
##$SAMPLEID= <>
##$SELREC= (0..24)
0 0 0 0 0 0 0 0 0 0 0 0 0 0 0 0 0 0 0 0 0 0 0 0 0
##$SFO1= 100.6228302769
##$SFO2= 400.13160052
##$SFO3= 400.13188061
##$SFO4= 400.13188061
##$SFO5= 400.13188061
##$SFO6= 400.13188061
##$SFO7= 400.13188061
##$SFO8= 400.13188061
##$SOLVENT= <CDCl3>
##$SOLVOLD= <off>
##$SP= (0..63)
120 120 120 120 120 120 120 120 120 120 120 120 120 120 120 120 120 120
120 120 120 120 120 120 120 120 120 120 120 120 120 120 120 120 120 120
120 120 120 120 120 120 120 120 120 120 120 120 120 120 120 120 120 120
120 120 120 120 120 120 120 120 120 120
##$SPECTR= 0
##$SPINCNT= 0
##$SPNAM= (0..63)
<> <Q5.1000> <Q3_surbop.1> <0.0> <Eburp2tr.1000> <Crp60comp.4> <Crp60,0.5,20.1>
<Sinc1.1000> <Crp60,0.5,20.1> <> <Crp60comp.4> <Crp60comp.4> <> <> <Eburp2.1000>
<> <> <> <0.0> <Q5tr_sebop.1> <Q5tr_sebop.1> <Q5tr_sebop.1> <Q5tr_sebop.1>
<> <> <> <Gaus1_180r.1000> <> <> <Q5tr.1000> <Q3_surbop.1> <Reburp.1000>
<Q3.1000> <Q5_sebop.1> <Q3_surbop.1> <Q3_surbop.1> <Q5.1000> <Q3_rna_c68c1.1>
<> <> <Q3_surbop.1> <Crp60,0.5,20.1> <> <> <Crp60,20,20.10> <> <Crp60_xfilt.2>
<> <> <> <> <> <> <> <> <> <> <> <> <0.0> <0.0> <0.0> <> <>
##$SPOAL= (0..63)
0.5 1 0.5 0.5 0 0.5 0.5 0.5 0.5 0.5 0.5 0.5 0.5 0.5 1 0.5 0.5 0.5 0.5 0
0 0 0 0.5 0.5 0.5 0.5 0.5 0.5 0 0.5 0.5 0.5 1 0.5 0.5 1 0.5 0.5 0.5 0.5
0.5 0.5 0.5 0.5 0.5 0.5 0.5 0.5 0.5 0.5 0.5 0.5 0.5 0.5 0.5 0.5 0.5 0.5
0.5 0.5 0.5 0.5 0.5
##$SPOFFS= (0..63)
0 0 0 0 0 0 0 0 0 0 0 0 0 0 0 0 0 0 0 0 0 0 0 0 0 0 0 0 0 0 0 0 0 0 0 0
0 0 0 0 0 0 0 0 0 0 0 0 0 0 0 0 0 0 0 0 0 0 0 0 0 0 0 0
##$SPPEX= (0..63)
0 0 0 0 0 0 0 0 0 0 0 0 0 0 0 0 0 0 0 0 0 0 0 0 0 0 0 0 0 0 0 0 0 0 0 0
0 0 0 0 0 0 0 0 0 0 0 0 0 0 0 0 0 0 0 0 0 0 0 0 0 0 0 0
##$SPW= (0..63)
0 0.0011257 0.00092168 0 0.12085 8.1769 0 0.0078026 8.1769 0 8.1769 8.1769
0 0 0.12085 0 0 0 0 7.081919 11.00861 5.140243 27.7209 0 0 0 9.9839e-06
0 0 0.058474 1.1969 0.37007 0.0047171 8.6682 0.59448 0.00092168 0.20013
0.24535 0 0 0.14862 8.1769 0 0 0.10336 0 1.5752 0 0 0 0 0 0 0 0 0 0 0 0
0 0 0 0 0
##$SUBNAM= (0..9)
<> <> <> <> <> <> <> <> <> <>
##$SW= 236.621487827398
##$SWIBOX= (0..32)
0 3 1 0 0 0 0 0 0 0 0 0 0 0 0 0 0 0 0 0 0 0 0 0 0 0 0 0 0 0 0 0 0
##$SW_h= 23809.5238095238
##$SWfinal= 0
##$SigLockShift= 0
##$TD= 65536
##$TD0= 1
##$TD_INDIRECT= (0..7)
0 0 0 0 0 0 0 0
##$TDav= 1
##$TE= 297.9995
##$TE1= 298.2694
##$TE2= 0
##$TE3= 0
##$TE4= 0
##$TEG= 300
##$TE_MAGNET= 0
##$TE_PIDX= 1
##$TE_RAW= 298.2694
##$TE_STAB= (0..9)
1 1 0 0 0 0 0 0 0 0
##$TOTROT= (0..63)
0 0 0 0 0 0 0 0 0 0 0 0 0 0 0 0 0 0 0 0 0 0 0 0 0 0 0 0 0 0 0 0 0 0 0 0
0 0 0 0 0 0 0 0 0 0 0 0 0 0 0 0 0 0 0 0 0 0 0 0 0 0 0 0
##$TUBE_TYPE= <>
##$USERA1= <>
##$USERA10= <>
##$USERA2= <>
##$USERA3= <>
##$USERA4= <>
##$USERA5= <>
##$USERA6= <>
##$USERA7= <>
##$USERA8= <>
##$USERA9= <>
##$UUID= <b802a17f-c538-4a7c-9d9f-e485efd7ff40>
##$V9= 5
##$VALIDCODE= -1
##$VALIST= <>
##$VCLIST= <>
##$VDLIST= <>
##$VPLIST= <>
##$VTLIST= <>
##$WAVEMAKER= (0..7)
<> <> <> <> <> <> <> <>
##$WBST= 1024
##$WBSW= (0..7)
20 10 10 10 10 10 10 10
##$XGAIN= (0..3)
0 0 0 0
##$XL= 0
##$YL= 0
##$YMAX_a= 2133177.2734375
##$YMIN_a= -2214891.9609375
##$ZGOPTNS= <>
##$ZL1= 120
##$ZL2= 120
##$ZL3= 120
##$ZL4= 120
##$scaledByNS= no
##$scaledByRG= yes
##$shimCoilTempK= 305.15
##$ABSF1= 218.3226
##$ABSF2= -18.32256
##$ABSG= 5
##$ABSL= 3
##$ALPHA= 0
##$AQORDER= 0
##$ASSFAC= 0
##$ASSFACI= 0
##$ASSFACX= 0
##$ASSWID= 0
##$AUNMP= <proc_1d>
##$AXLEFT= 0
##$AXNAME= <>
##$AXNUC= <13C>
##$AXRIGHT= 0
##$AXTYPE= 0
##$AXUNIT= <>
##$AZFE= 0.1
##$AZFW= 0.1
##$BCFW= 0
##$BC_mod= 0
##$BYTORDP= 0
##$COROFFS= 0
##$CY= 15
##$DATMOD= 1
##$DC= 0
##$DFILT= <>
##$DTYPP= 0
##$ERETIC= no
##$F1P= 0
##$F2P= 0
##$FCOR= 1
##$FTSIZE= 65536
##$FT_mod= 6
##$GAMMA= 0
##$GB= 0
##$INTBC= 1
##$INTSCL= 1
##$ISEN= 128
##$LB= 0.3
##$LEV0= 0
##$LPBIN= 0
##$MAXI= 10000
##$MC2= 0
##$MEAN= 0
##$ME_mod= 0
##$MI= 0
##$MddCEXP= no
##$MddCT_SP= no
##$MddF180= no
##$MddLAMBDA= 0
##$MddMEMORY= 0
##$MddMERGE= 0
##$MddNCOMP= 0
##$MddNITER= 0
##$MddNOISE= 0
##$MddPHASE= 0
##$MddSEED= 0
##$MddSRSIZE= 0
##$Mdd_CsALG= 0
##$Mdd_CsLAMBDA= 0
##$Mdd_CsNITER= 0
##$Mdd_CsNORM= 0
##$Mdd_CsVE= no
##$Mdd_CsZF= 0
##$Mdd_LrLAMBDA= 0
##$Mdd_LrNITER= 0
##$Mdd_LrRANK= 0
##$Mdd_LrZF= 0
##$Mdd_mod= 0
##$NCOEF= 0
##$NC_proc= 4
##$NLEV= 6
##$NOISF1= 8.174992
##$NOISF2= 6.675002
##$NSP= 0
##$NTH_PI= 0
##$NZP= 0
##$OFFSET= 218.3226
##$PC= 1
##$PHC0= 64.9
##$PHC1= 0
##$PH_mod= 1
##$PKNL= yes
##$PPARMOD= 0
##$PPDIAG= 0
##$PPIPTYP= 0
##$PPMPNUM= 2147483647
##$PPRESOL= 1
##$PSCAL= 4
##$PSIGN= 0
##$PYNMP= <proc.py>
##$RDF1= 0
##$RDF2= 0
##$RDFWHM= 0
##$RDINT= 0
##$RDPOS= 0
##$REVERSE= no
##$SF= 100.612769
##$SI= 65536
##$SIGF1= 5.6
##$SIGF2= 5.2
##$SINO= 0
##$SIOLD= 65536
##$SPECTYP= <>
##$SREF_mod= 1
##$SREGLST= <13C.CDCl3>
##$SSB= 0
##$STSI= 65536
##$STSR= 0
##$SW_p= 23809.5238095238
##$SYMM= 0
##$S_DEV= 0
##$TDeff= 65536
##$TDoff= 0
##$TI= <>
##$TILT= no
##$TM1= 0
##$TM2= 0
##$TOPLEV= 0
##$USERP1= <>
##$USERP10= <>
##$USERP2= <>
##$USERP3= <>
##$USERP4= <>
##$USERP5= <>
##$USERP6= <>
##$USERP7= <>
##$USERP8= <>
##$USERP9= <>
##$WDW= 1
##$XDIM= 65536
##$YMAX_p= 310173915
##$YMIN_p= -664640
##$CURPLOT= <>
##$CURPRIN= <$>
##$DFORMAT= <normdp>
##$LAYOUT= <+/1D_H.xwp>
##$LFORMAT= <normlp>
##$PFORMAT= <normpl>
$$ End of Bruker specific parameters
$$ ---------------------------------
##NTUPLES= NMR SPECTRUM
##VAR_NAME=  FREQUENCY,     SPECTRUM/REAL,   SPECTRUM/IMAG
##SYMBOL=    X,             R,               I
##VAR_TYPE=  INDEPENDENT,   DEPENDENT,       DEPENDENT
##VAR_FORM=  AFFN,          ASDF,            ASDF
##VAR_DIM=   65536,         65536,           65536
##UNITS=     HZ,            ARBITRARY UNITS, ARBITRARY UNITS
##FACTOR=    0.363304501488095, 1,           1
##FIRST=     23809.1605050223, 124498,       -131598
##LAST=      0,             15599,           30324
##MIN=       0,             -664640,         -2214891.9609375
##MAX=       23809.1605050223, 310173915,    2133177.2734375
$$ Real data points
##PAGE= N=1
##DATA TABLE= (X++(R..R)), XYDATA
65535A24498a23096M4901J6799B0237J40430G9815B0794L0897c2294D5794B775
65523D1408j7495a47966j17238A12936m9085c3675r1079g097j13257c6832H3149
65511f196n8746q544K7234K0804p9362p1013C9267D878b2319m5348l5213b9795
65498a16801d1410C4509a9754l1143H908a00670C7482P0977l7427d123G9982L0036
65486A10018E4279a1194q8523j35681M9642d3933k2760p3209L2108A08469e7557
65474f1599g233B8515P1087a7331n2753j79064J13002b7468D4498e0050I6847
65462A12507e8364K6060l8069o9415c9935I0915N4515D9926b3210F8858J47193
65451B16051k4320F5694B3264q353a02541J5927D2052L5700J09435G4121e9309
65439a91539R3504L2610j13171f1386B0347a1853H471j896J40221J54458A04298
65427a15292j7338G9419h7852M2720E2069h7718q0397P1440H9924l6899d6568
65415b12970M7563k4487a2480j28451c5150I2752l4410b2845o8116J6185b1425
65403c9550m035H383f2281o4694m4915M7691J5475a4398H8449A7947H680g9372
65390c8278f586a525A18633b8062A9365J23273m3413A943i3273p6771N7314A5400
65377A7462e0216I1059e0220N19A5455a9597O707I9935c3449j78371g1122C1013
65364A00630R215d6792A2111e4784P599n1401K3325J6354K0890m3457A52248l5316
65352A16932L4610F4314e5332G7957M2196j9193C5514a03745G8313N9069O1709
65341A99091I2510f4303B3278J3149f4183k47623L0223a22754a806j51226C0429
65329C0878j2223J89091k1347e9914l4124j0964K5650A14261K6448l9789a64686
[...]
3303a18704A25429a30148j57797L8703J11552k18951J36282M7657j28167j61843
3293d62712J15387J0863o0391j29108a70803e0123R284j01078j73847a39886M9049
3282i0837m149a4280k83828a11590m046k03900a8132G9091a20144L6832j95189
3271b78501j81727M8077j15300J44113J71378H600b31580b8112j30663o4278L4259
3260a88794M8081L1154J760n1631k72555J04642e1226j39191J1899A3398a41974
3248b70323J3384B4767l814g2458G6129c4884b2n478k89387J0718a38339j04766
3236b43105r0994f4309a9251l32978a54859j0973Q2903j17115N0298m37008K68241
3225c18513p430k9375j08468J56985J377j27542J28420N6215N8910j13910j7885
3214c21216o4653p5870l6990e6714j07594m5315R109q5579j10078K4978j2724
3203c83917M5406a60357L929k5188K7923f5516j79170Q8014j50651J09385L5512
3192a62426k29655n8439k441a73536j73952i0398N95o3765j66778k5028l9118
3181c84492J55194h8539j54102j52968L4586a80223j35549k06441O1861J72534
3171b87818a39320J4134j1139r7820l9758M0448a01795k8421p3037j28180a64563
3159C2124d4186j67688Q0274h932j46305j04319j68865J86161R0850L2486O924
3148a12000k9776j27446K0104J1050R6527M5013j05943p3339f2383j54159m793
3137b21335Q7597D0672L3050a73535c0408l4239r1409c3189r7871n0370M462j74086
3125c51054k65301K04128O7221J32146o3364D928P6703a57250o7634O315g3524
3113c16956a40559j2839r3796F2499C1011a34203G270i4041o1938N6073M6016
3102e3890j28982j81683K2122N9202q6277J80653K057L4446K5307P440B9722a44931
3089b25897N0643N9386q7812a313E504a51820j14689a10486L2673p6115k83744
3078d37672b16439a06973k6137J6938K0493j094k72264M6325D0685Q6051i7343
3066d39241b17715n4934j66666J16076J15039j72799L6902M5497r2370O6783J2385
3055c11802J05853c7996j28267p1932a18935j72272R5848o2115n281a17570j61657
3044b79227K1441j08859J73651Q0789L4594j85971L042O9840j34441a54711n3944
3033b08655j25847k6110j4438J37985N9347l5161P0624N6219J1354j33737j37243
3022c45662J61308P4115k8039L2548k46029j99730J33723J38085J4310o4073k87878
3011f17322K29421R2194j06857J01360R06m2578a51833j04312k9674o9330j5947
3000c71096Q1458a05221m6332j15374R8837M0700p1660k6640g1908a5540j48874
2989a64414P97j28817j38300Q2901J52472Q8016j84058k9195J54100r3252J26699
2978a33051j38596J06810O6360j71092a29377J0239K0255j78358k6537Q6307k22491
2967d39962k7032O9216J21806K0927j0656j43916k71322J00054K61334a12129
2956a53495k54898O1677J50872M9240J3271j22592M377j78277K04151O5482P2739
2945h7453l39279m2289b16078A50481l8379b71615m3015a14969H0803b18745r8016
2934c16761a32578L1883C803i7139K0453i931j54996K8897J982A8848J5490c08426
2921g5251K4294n6749k08661J06932k839r7312K6644Q9876o515j35513j04511
2910d39605R0453a35348e9529o3562m006n299k73877J26198M9863G4540d1121
2898a32184m4397d9299j17333N1663n7793j5388d7789j52401k4616P949A47247
2886a19059J9767r7926L2410N358k46m2642j67899k44913J1971n55K41660J34580
2874b27494j35083f4827C8934M7087b17062c6346A20658A7568b027l81820K3363
2863c60484J12856r3043K3202J46398I1255a02163q0369k40400J37954L3226j11804
2852c63556n2947L638K1855a03204j54203J1190j92507R4179f1697k27260l9812
2841c28769n1684J49996j59544N0495g3400k64838R8640c0203l16922j53602J78661
2830c22066Q5519Q7062j23357a34920j46279l02374b44512R8540d5128k7493b4723
2818B5117b17355j4486j27331J42648a00995l41809J87317j77698Q7307J31638
2808b14240m5928j0760L7974P1880j89567J49599J3814r4874r8781a88142p9556
2797b67698k0818Q444O422J5492h3219j08887j99391Q9433i9704j31560j12775
2786c44039M7193M5318J02886k7714k5403m40j33931J67480k23526J30272a09558
2774a88850j0429h5416j37729p926p154J02021k29224J58083m6147k02309b13108
2762c08355Q2115E1856g4217A75359a617p8146r4775J5438e732l26166R4605J04607
2750a32686j22191J12946l8968q5438J6060M120M8023K393o1347n6892a32020
2738b70158L7630M3170j51361Q0508f8532K1199r0015l9954K227N9926P789C6350
2725e9075E0773a2946j21293j79214Q9110c4783l49525q6491K15145j48145a48973
2713b56070j50975N0738J35735e4273J7111p5741p895K1926k88778l8227J36983
2702b88894j03262L0028J53453e2436A5552a92626L9470o3804k8263M4572r1613
2691b92264k8838O0802n1357a28325n1213j00531J15749l6262p2397J23115O2003
2680h7861L5923j03296J3132N432j78010J6879j46399M4762J7827J67297J4491
2669a99823f7297j92358p7793A0202d0388k12864M6611n0979P3917j83624N6412
2658c10915R7286j02803a50889D7072i0115j18605k05349L0969J04961o1358N7201
2647b82296m6805j29035J89486a00350q2208d3101l5271j6474j19652f9311k5586
2636i4897k67023J29807p9714P7768P3344P8382k2842k32203j09320J34504L4040
2625b78154j20897K3979a46816M8880k6966k60438J69298k2247j4903Q7642j11683
2614b77233A5095i1334r479r000K1572q9555j08467K3233j5758a29155m5331n7889
2602b32375l5454l1506M8025N1241h2928m2674A14655b21241j844c5331j43612
2591a78943n7407d6815o7712l05659m132a45107d4694j36236O9277J3700d035
2579c9142C0886b6009j66088j44681i9718q3427r8452r782J16207c946l51054
2568c55000M0647g9903l1037l2775r2353P1686j18490J14953n0150o472E8549
2556c4543j49609j03185j41516J46757K0777j80634j57477b45671a4252l13473
2546c27725a19335j1690j06956k9747j15530m2651l0483a53748j627m3923A8247
2534b23785p0901M1183j74153b02101j41260J8384r9823O8262J40958C8587b46851
2522c23417r42J52782j49426r3425b03047j12796a28271c2550j58715J0707O6265
2511a14293o3362P1563R118q4997j18520R4589j13510k8215f0703j5895j41857
2500b18455M2177P1679k0770N1667f310I1992C1049b58366R7710N5065j68903
2489b74494K4902a08504L17q47j58303P2323K4728N5509j61959J4182M9723R1186
2477a21645e6974m4492j84349M5466k9112o4608J03167K3946l0702J12440o5270
2466a90488J715n8948P9042o2993J01947B3632L5583a78923g3467A61341N5057
2455B16398b20116j33997j54309J16353a00402L1691j02229h5090J0841r9796
2445a74045K36A44090i1325m2833j78660O396N0110q1735j84373J19429n6204
2434d59195J69820h7786E9835B9293a81106k9167O818k11459K6149N4503J23269
2423b10993j07307P8666n4110J1805a16697J3701o8082g1165k08743o7021a52255
2411c52076J03163c7767k16683J04841m4275j7369Q5700m0159M6068L3636o4286
2400a50294j06947L0955O0935L2059J206k7605e7155o35j56339j19531e7600l0924
2388h8524j87424Q2228b5633l0844n6498j38012J04951j03107L1913i1373n0299
2377a41672o1452P8171j04575j4546n4608N4160J07896A9588b10492r4454J42309
2366a62637k36246o0657J86345J2401b5736k52382J29629j38687R6360d9970n0353
2355a00323p0515O0947A6675e7584k26523O917r7203k435C6245R7314a00222j62754
2343b62976m090L283M4591l9517L3574d7912J4900k68017l9799q2314J88929e3070
2330c0284j2810I7555B6677a52771g3812k54724R0047h3670r1505j31612P8485
2319b28302o9861j88925J59638R124f5234q3495k67141Q4075J43506n4528p0772
2308c13589M7798k7408l6164L1231k97970J15336J35414P6642a4817D5425b7473
2296a90977j96704a81899j14792q5736p4536K11859L9253l6206j35822a42822
2285a6285F888b43828N09j07565J31650f0020b6547a458k58393M5667j21415a30456
2272h3972o4458j10561j29518N1686J59945g0574k46472M3937j393k6050i157
2260A38845e359j98009q7883J42255r466j30217M3314j89056J12543L5349k0920
2249c07449k6006N4098j41510J79896l5017P2744j96784P0378J49993L0133j19692
2238b69216J3902A8444b64155M1358m4209e2910l9032p5672n6218O400n1085h6258
2225b53536n7511K5926i2553M3687B3206L4270c6684r6361B0261h9264q8165O6790
2213a10639J0869j29190B4960i4708l4525F190a33600k50937J55149k92464M1837
2202d80015J11699q4462K4393K2696L0815j60304J44433J31868Q2980G4279a77075
2190a79941j70759M2571N5233j66747Q0189P3197J22860A2173g9240j28191c701
2178a68110j44115a21215E6346a25507j04532g402j44982n5570j27644j0646j01530
2167d47774a90105I4738b51340j31076a87945j0592k1436n2363J18781j54975
2157c08530j09248J23991A4946J14812a42615k77095n2437a90559d3688j38306
2147a81994J1404k8316M6874m9932P8018a7631k54630p6930k05607K10874O9757
2136b74167a27367j89073N7488N8666p6858R0198q3076j69939a69499o9243P3735
2125a65007r6568O5522m6011d5497k7701a0663j4132m5207n892A3910c26023k0691
2113c46714i2987n6031m2334q7964d4913I3829b67657r1543J35792O8414f7427
2101a60990P2011b3420k64593j15919K7020J04433Q0396j35269J31983O7371d1527
2089a87014b8409a1885k71887L8090i6623k82527J38682K4676j60476R0019J09686
2078a76563I704a35957j7499j20773M4436P1145o3070r7743M0314r6109J68789
2067b06467Q2017l2941j15146j35786J27162K9176n3683o3610J01875a07566L6119
2056g1447j94439q7818J75727L1519k5418j38439M8835M6882O7399B0242b97844
2044d16498J28420d8176k3688n6014a6045r8097k01975R5521j9457a09547j19900
2033b29447P7823M7809I6001b05028j79329i8838O267j84426j10565o8241M0257
2022d15546a78373j0471K4356L5776N8328C6100i7199R533n6404k33276a67029
2010b2483j51875j65299J24869j45198p7043J16903a32736n174N6760J8972n7252
1999a19430d3565A3270L0416b8418l0796a9148q9942m4666j1671P6815o4075o0508
1987b13195A73161b86269j94756K10668i2790j88580h7324p5943j50933M7370
1977b66830a26933M8238j64423j00419Q1180Q0660p7141r0108J31252O3616M8227
1966a05851m20o4219K8077c5898C4275Q7183J09390a9934j10483L4453j49344
1955b45308r1197J44540K9053d9452r9337k29972a40885r2434a504l7944C4522
1943h9842j47213l8124a27502C3599a66454j69731J40695j34179k7673d6800j66421
1932b13221j10128O7941J5862L7864o1513G473a34835k45245k1564J14074j33967
1921d21537a45465M1121j40862R8692j61470n3748R9968o9264J10758L3641e68
1909F9967a97852D0412f1540J4105j90965R8073m7371l16422N190b20028d7603
1897A51415G3575g659q0449l3421A44940M8077d7249n2168k27423K9754J44599
1886a52487l2196e5432j60172j44170J07311o6091m262k3561B2724g6552j72888
1875b49440P0305j5867P3509j7301J6722c8491j4035k09959l0761J01475r8032
1864b89803L9212m2391J8135Q3808K7427q473k82957j51857K02270a18064L1119
1853h6945l08236L2358N6441p3546o5508J00666k8549J42423C9822j9676a27285
1841c9409j63943j102P9829n3153r5828a02186j71615c6509n4190j03283j96954
1830c90936J35446a05909k8045a7094j34409p4634j2975K5433j34897a09342N1351
1819e7991a2919j56327K6898E9321I753d1842k8376J5617m2757k41951J61410
1808a77899F6459r619b070o6783F9315K0517a68480l33756n7141J00329J75244
1797b83804Q9857l0778j20211j14462R2759N5122J21795O1019A13543d7127k00332
1786b47459L0543k99571K44580a22631A7341N5340a62199j41087J26286O7584
1776a09416j16622P8028o0360G3101b77575k2810n8345R3572j87252J70437N3580
1765b28393j02306j8879K9848Q4270r5896j6045l4676p2046P9637B634P0872a07939
1752a50485A7730c01782q8840Q4514m6349j96730j94723L59141d7293H590a16600
1740a69905n9282R7017o7052k37131j4008M0248J86140N2371l0749f6733o9685
1729a36418L3455j46570j02734B290L3570b30434p3216J36934N1420P050j65473
1718b73719p5278J03389K2258r7231L5357h591o903r2136d8190m1934A5959a89484
1705b75474J2304j01337a25084l50733J29473J43324K6659L8364J2434q5201l3675
1694b44439a19140M4151m8455l27232a80077M3773N9098J3715J0656k11944q2426
1683c47205j15799a81612j42943j94729K51731j077L1574O7088M1188c0042r0648
1672a20690k44840e1237A86246J5899b2618k4813k4714k362q3529d0336j10226
1661a50562j19660a30398p0365a4176p9520c8293A19795A3510c58565J09520K967
1650b46078b8118J1333k45333m3525J14373j9426j63217o7722d5451p2176j11646
1639b29273q5296j5520P9925J15747f3030K1313E2331F53a44320f6906C2166a76773
1626g5237l7525k2145o0351P8135o4639l413k0133j85695J1940a49524l5624j85825
1614c70973k16437j32131J52705K43188j7540a54241k90641J39718a44501p2049
1604b16550J0094Q5522j35705K1466M8398A709Q1690b30886N5151k8611j8205
1593b22551M6623n6870j3696K039j44955k4246R3399O5399j04122J28755j5270
1582b45495m791O7259l18518q5452K06763J47927k06440K11086j45539O1740j9050
1571c30510M4368R3900A1879J771b67937N3857j23439f0087j08523p7008M2376
1560b03242j527L0700n9345j29784l0311n0015J67864M9269A0048a81966L9365
1549a42601L3859l37n6410l326I4454j1005f8274l4040n7406o8488j50119J25651
1537b52676f444A2624a18474j21817J15108J0762M0321r3582d1270C7118K3134
1526F0252j4616c42978J29527j33724o424Q2336j15042a54917j99175m694J04250
1515b54536i2491C0969P3530M545g9325q9622j57587k9225l4514a38364j78835
1504c17199j41963J76758j0722R5568B13299j2819a43701g0948l03954J10894
1494b64008K3442J6905P8202j56647j54811a02577k6249k39438Q3114O0531B7531
1482f9154a4215k57661J30161b8635k41450M8106j97793j0896K1629J35941K9843
1471b43255j08857J51393b0532j60023l91835J26512a80402P7335p1333j20971
1461b95371p7090R1832f9679q0964n2231j87581a71740m6902k08500R1894l3400
1450c68648J03278a27343q8999a4700A00175N7157i5596E830a82641m2913P5054
1439a50500b4274G8400f5693o425n456D0773a53351p0717a10383j14428c5023
1427a73733p0865L1758k8519M2944J2005P4602k2288o3260A1484N6324b29775
1415b58219M5890O1701j1626p4801O2154j91898a51744H5187R168a57767k37189
1404c94956J45202g4220j02963l9665c2080j46268M3124K7632k13601J30965c5961
1392A6769O1965c2838P455j90671D2552B0144a85456j92529a20332j10508i9074
1380f0617n1153D5146b11842O0132k24991M965M0375g0751r8661R533f6710k33256
1368b99966J34328F5984a47920n0501j18818K1644a11791c7035j8712k01091J06228
1357a50610d906j10444j45512h8372j05852R0078M3994j80267M9375q6900J27207
1346a50737N9921k4666A34056a549k03641j06165h8978m9043c6902G9628d120
1334f3927p3804j70323N5156q0756K6500J19800b0560j50848C7258a02894p1404
1323a74298M0565o703A11740h0667j74621M8350l1957j13499J24654k1704Q1328
1312a68116b2952j06066A1706d0705j04849c2781D5689a55389f3782j25630M7368
1301a42044n4425j70334j8102a21724j39221f4065L1550D9747a45761p2867R0458
1290a28170L0482K560q7961q5459M0798H8452i6740k82327R6568o1419k1056J32809
1278b32165O3917r5842Q0049m0974c9638o8378k45588J6180A1237a24832m9331
1267a74163P6752C3510b30536h6604F1065b45961e9688j40489j28545R5245g0653
1255b21457m129b8440k94324J45214l4171m7202J7064m3908a28380j65397Q6725
1244b07052l7124J11111j10657j93420P7270a40897J9933j45665a04873n6479
1234a61352m9933m1128a5320n6112b9634H6966c1283M194f485k03608n6871A306
1221b97493O5578e3059E8144a02453j69382K5215J16486j23932j5481R5595b299
1209b3195j03443l6349q3292k01971J03810J34930f4227k35037j65445a67129
1198c08156L3611p4320O8591A02167M5532f4350j39609k0241P988j27345J31652
1187b11905P6170j74425J10318Q254m6736K9260k6621k17581J86636i9149j11343
1176b10492j0447N8903O0261k33853k49727Q7839J61126J24840Q1985N0492G2020
1164b03468j37133f4608p8764r8663j01840J58590L3291J8320b3298l851g233
1152d0695n6153k01643n7474o6858J50591R8263k70548K19283p8137j1623j28101
1141d43095K17060c4311n0483j28496M3977M2901m3366L9016N256j39742J19681
1130a45567j63805J00829o5889k47700J45179N1337J09235m7443c7047q2222J8459
1119a00810k51645J6953L6534p8098O6369J40229J2748r9050p0704j337j9535
1108c48346R0140L781e2557o4001j50537J9806p5561J31068g8893m594l223n4008
1096a40718l6217j6522l461n8856j55015J62813L6437M2694d1321r8867l1139
1085a71327d7673G6871a10909n1515G093a72371k20076J73440j61770a32865L4678
1074i8187j99071J29660c9860j00761k72810a66804e6641j17188j92989J80396
1064a86422h1492k51905K234a53888P584l354J1335n2510m166L2498m1171J3755
1052a89917n0602j10633j4142a42049q0294j85651j21023J32388J22211d3969
1041C3218M041b17990j0949i4310o8247o762n7065j10605q09a55270c1385A10052
1028a54432c6204n57k09433K3128j34845m6141J87826q6784M731O2228j11442
1017c47493C22e8055A5927a37177m7630j90643J71454L0046Q1178p7379n6224
1006b26375j00392L6188J07006j61460j50730J90241e4651p6328c6631j75242
996b11873r5956J02352k0729j5845J00942m1343k91300J66289J50571r82N5631
985a02243k49325J26330J7151k41155K16244H8263J0678a63404n3367j2511o6336
974b95618m1461J55492M2114j14154j93447J82888d3005j83176j54916J41604
964b39493J14084N0346B3618a43335A3953N2697a73920r0071j613m3010K4052
953b84562R6639j97902j0622N4728J46602r2992P9197l5075J5643r8985O8477
942b58852n4405r6291J58008J6452f7124m7674q8006j73120J48372q2339e2979
930D5459h2834A8012g3839k9352k69683a19085L571E8181b31565N9796k1436h2676
917b53540R1965H4756C8946h6238l3325j09480k9604K7177N6030d4729c180r525
905a2705j89995L0032K5807K5684j72043n6643J23287a09328K2335K6943j47466
894b07516p1277i2553c0324r6449d6982j82923R0937A07115a5242H9108c4383
882C9051a56401K8760L3611d5771j05518m9248j85047R0392k1242P7301J00962
871a38171l0375m2212P7601M530j91925j41232J37540M0025Q4490A8744M3522
860F2266e4492J4650n8378H9425l7469a87520O2295j15393B8065a69406j12955
849b82361N2749H363M361g9966C2642L13J979g8982r5024K6587D4177g0878A08722
835H0628a78846K9328f5001J8789j20582M6035n9387h1880b7500N10k00523o0708
823b88221P5170o7100h5992C9482c79132O0943J21191N0323O5602p08G1257L2450
811A03707a48141j25948J07977j26546j00999n3485N5383d0393E3006a19813d1035
799C0245a39725l1743N348d4820E8338A5578h4571p6758k06881a39872J914j29215
787b67173J3371R2424k8939a1418A35717f8658m1526j1696A7775a58721L2242
776a26479d1011q3021c7751A9844b42868j10022i7182j07466k32727j13195J15324
765d35246J92593a19606J6618a3062C02444a49293j89714a27739j33405f5994
754a17431j93315R1775n8217P6453i7952C9927g2809r0848f6742q104k66058k7733
742c68637M2404N4625e4487o0900A8873a73049l5944R0083j98899P9941k11511
731d49379M8017h8336r6937N299j93178P0602r4566M4765m4527a10487j4112K4406
719a00193b9962j58458j39514a26431L2605d5387j34860Q2930M5106j86085o0579
708b98875D7444b47771n8858c5292A07130h383j48454O4711o4923L448c6237n3872
696i0109j58089O3009q8881k0389Q9893J8068q3707J10167L0687q1816m8528m9623
684c09318J19390Q538p7186r5084N7777M7210J00680j93424J6907J12358q4598
673b96750M3000R4662j96902J48792J4763J2073l2838L6367h0743c1838n0535
662h2373j20659a9644l4076l31148J74631N9468o5473b0592j15572m0104j14235
651b90503R2578i7702j06455k14708J53885J05544m6477g7691A77505a96255r226
640b05481P4585J9579L1276b9874B8900c6274l6577j56459J09553J3427j40370
629b46700l6159J31156j9521D479d1624j18716k82009J04584J58324j04841a07009
617B79188D2875a10803q1710F6972J94983j08748d2093j72150o1243P7759j25062
606c22789a58267c4084p6974j64439J13625m2515i4381J2096K3992j50603P0267
595a38629j53821J19019O3995J5576j50204m3417a26788j81911g1853C265c07648
583a32302r1435L6289g8633c1309k37370A9013K5580a6650j00219E5134Q3757
572A38891A7437a02323a7498B0509a72674Q769j35841M793e8122j17664K1935
561a53851q6654j04848J20223K1309A43579b2618k60686a24035I237N1988d612
549b87794j95844R7681g9014L4284b2079r5641c7585P345A4268b1980F2402j9724
537D2678d2445j11782m0299e8890A12060f1652k10800d7508a944j30639A8481
525e8393J2728j5903o8108m5932n6492p1295Q3029h4359J0071K2851l1551k15413
513b98401P7567o9317J16968E54b15791a02355J6023j70414l8419P0740h4730
501b10929o3575m7534d7577l7743n9839j45024R8140a9998C0561R4875g8361k65455
489c43816J15973r2464h2050l2942E1200A5744a39025f5206k8266k00360J34143
478a59689o322E5084e7247r9516j16648R411h6350C850a60508j4333J4468P5027
466h5346o6231O0611j7868r6243o5567O0815K884d083A50167R1440g6838k7015
454a03853B4927b27258k3124m4481O5232J13649o4700k6572Q2771o0182o770a9696
441g0328K6844j6617l1521E5332j3634a79290j10236n357R9317f7005j6272n030
429h8307k19995a38929A6814h7994j05110i1878o5651O9724A5729d5176j34043
418a79219j5183J4830e3471k1418j91867d7578A2059f6862o2987q375K6460K4791
406h6973o1320p9383l5522e7682j08803f1137J6456j8770B3039a9745l2526n1836
394a04107o1282j02782P7262q5601e8507F8643h2472n7314L4463m8730l1367e0794
381a04649J7802j9561j7345J9969m426A6495L0794M2573m4280b6865p527k7180
369f1572o1947o8210k591f5305H60b949j85804l1717d8609j0998j46613o3857
357b70077D8250J39922C7336a14392j20980a05806m8789D7873J30860N2383I0348
345H0043h2787b9038p7750j2902K3790J7014k8619q9972k840G762a00284r939
333a10223p730C919g9830q3154e8815A9361R77a27001J9194B7614a89054i0914
320a00461l8463L8173M6837k7126p4447K4744n54l3991j26547j44856b04462m3001
308b47463M1665L0532N0827k3960I0850L6251M2117A5277b16505g7613k9391C3167
295I7583c9513j24569a0292n8145l00491J75692Q7147j04715K3392L5637k00631
284c52406q9256a78989g7282K6121A193e1842J2744k04542R0296P4999a2791o8744
272h1535o3557l4602J6451d7533j23787b7947H101b18024g280K767o6429r6324
260a67266l0200g4232o634K592k3506q941J6579k9806a9972C5300g6023k04686
248b80709N1894R996j912R0237j88548e5404k8046A20969N5615b9893e643n2309
236e7952j22078J1244O3475b1306j12595a065l2700h878q0860j59614J3240k3974
224b60086a25912j4321o3637R7785k84489a26922k32r5147P8941e5585j04191
213a59776j14075j3065Q8552j34052J23566c4407n6395c0556k5055j00274c0229
201a20584n4685m920h3157E7754f6364j15624N9489L5200p4025k1755L3940A9289
188c8047Q269q2211k770r5501Q792J00088r041J8844E4936a849o6151b0683m1573
175f2256q6045d62l4287j95876J05341A0170M0960b19172e740E4679O8545p608
163A15616P04D9053a65407O3946p7390e4482j03447B9641a15799q3757h8681m7882
151a36563q392m7525P8691G4985L312a70932O6358m7543o73K4247K1109O963j4717
138a15188r9781D9663B4061D99c4725J5025n8246b0537D5943J0270P1879n0165
126G7927j7533N3981J33699o9405F5836c9947j6300l8275J0205n3251q7590O8026
114a57132J9655e8863K4124n6562M1145j12003q6641d3355l3219O758k9181L559
102i5438A45830h4509l9045H000a77606e6333o2314A6618O3311a50284N4168l5269
90a31385L4192M6450J6438E6N6986k2943g2979j0903a4010c168j32114b7903E3683
76h5848p9175a86H1669b0999j11153d3476E4419L3428d4118A07059A5097b6826
63b34374f5644N574m1754r7740L3184a8764F024a5456A1519B911a34914m9612
51a84526P6887C463K5553r201J7262a75558b8787q7650k7348B7010C143b0529
38d401k5061A19603b5662m3559o5596K6581M0481A08042a17068K4560j41803M4459
26a89852J4997L8635C3815c9096k1300q6642m3298O5002e2012J6465j2220J2009
14c5758k4312j06332l3718P5745N0366B481a16867K6059C5570i0518j88336h7054
1b6410C0324
##END NTUPLES=NMR SPECTRUM
##END=
