##TITLE=8d93b60875bb - reference
##JCAMPDX= 6.0         $$ Bruker NMR JCAMP-DX V2.0
##DATA TYPE= NMR SPECTRUM
##DATA CLASS= NTUPLES
##ORIGIN= BRUKER
##OWNER= apprentis.isic@epfl.ch
##LONG DATE= 2023/07/08 22:55:47+0000
$$ TopSpin 4.1.4
$$ 2023-11-01 09:58:55.817 +0100  nmrsu@nmrf492r
$$ Compression mode = diff/dup
##.OBSERVE FREQUENCY= 100.6228302769
##.OBSERVE NUCLEUS= ^13C
##.ACQUISITION MODE= SIMULTANEOUS (DQD)
##.ACQUISITION SCHEME= undefined
##.AVERAGES= 256
##.DIGITISER RES= 32
##SPECTROMETER/DATA SYSTEM= AV4 400 MHZ
##.PULSE SEQUENCE= zg30
##.SOLVENT NAME= CDCl3
##.SHIFT REFERENCE= INTERNAL, CDCl3, 1, 218.3226
##AUDIT TRAIL= $$ (NUMBER, WHEN, WHO, WHERE, PROCESS, VERSION, WHAT)
$$ ##TITLE= Audit trail, TopSpin 4.1.4
$$ ##JCAMPDX= 5.01
$$ ##ORIGIN= Bruker BioSpin GmbH
$$ ##OWNER= nmrsu
$$ $$ /opt/data/apprentis.isic@epfl.ch/nmr/8d93b60875bb_reference_108-24-7/6/pdata/1/auditp.txt
$$ ##AUDIT TRAIL=  $$ (NUMBER, WHEN, WHO, WHERE, PROCESS, VERSION, WHAT)
(   1,<2023-07-08 22:40:59.592 +0000>,<nmrsu>,<nmrf492r>,<go4>,<TopSpin 4.1.4>,
      <acquisition in progress>)
$$ $$ /opt/data/apprentis.isic@epfl.ch/nmr/8d93b60875bb_reference_108-24-7/6/audita.txt
(   2,<2023-07-08 22:55:48.145 +0000>,<nmrsu>,<nmrf492r>,<go4>,<TopSpin 4.1.4>,
      <created by zg on 'AV4 400 MHZ' (nmrf492r) by user 'nmrsu'
       on data set with UUID '828c80be-1de0-11ee-b431-00139526683c'
       started at 2023-07-08 22:40:59.602 +0000, POWCHK enabled, PULCHK disabled,
       completed at 2023-07-08 22:55:48.142 +0000
       configuration hash MD5:
       CD 8D D6 62 70 46 CF 44 22 D8 1D DE BA 17 57 A5
       double data hash MD5: 64K
       1C 45 F5 56 4D FA 02 02 10 2C 55 06 79 3B 5A FF>)
(   3,<2023-07-09 00:55:37.270 +0200>,<nmrsu>,<nmrf492r>,<xwish3>,<TopSpin 4.1.4>,
      <ICON-NMR User ID: apprentis.isic@epfl.ch
       double data hash MD5: 64K
       1C 45 F5 56 4D FA 02 02 10 2C 55 06 79 3B 5A FF>)
(   4,<2023-07-09 00:55:38.057 +0200>,<nmrsu/apprentis.isic@epfl.ch>,<nmrf492r>,<proc1d>,<TopSpin 4.1.4>,
      <Start of raw data processing
       ef LB = 0.3 FT_mod = 6 PKNL = 1 SI = 64K 
       data hash MD5: 64K
       E4 A0 93 78 99 FA 9C FF B5 C0 B0 4D B2 FE 39 10>)
(   5,<2023-07-09 00:55:38.471 +0200>,<nmrsu/apprentis.isic@epfl.ch>,<nmrf492r>,<proc1d>,<TopSpin 4.1.4>,
      <apk0 
       data hash MD5: 64K
       03 5C DF DD CC 7F D2 38 3A 1A 31 2F F1 F2 F4 1C>)
(   6,<2023-07-09 00:55:38.547 +0200>,<nmrsu/apprentis.isic@epfl.ch>,<nmrf492r>,<proc1d>,<TopSpin 4.1.4>,
      <abs ABSG = 5 
       data hash MD5: 64K
       D7 AB B6 48 D1 FB C7 98 DC B9 6E D1 0F 08 16 88>)
(   7,<2023-07-09 00:55:38.568 +0200>,<nmrsu/apprentis.isic@epfl.ch>,<nmrf492r>,<peak>,<TopSpin 4.1.4>,
      <1D Peak picking
       data hash MD5: 64K
       D7 AB B6 48 D1 FB C7 98 DC B9 6E D1 0F 08 16 88>)
(   8,<2023-07-09 00:55:38.614 +0200>,<nmrsu/apprentis.isic@epfl.ch>,<nmrf492r>,<xwish3>,<TopSpin 4.1.4>,
      <ICON-NMR User ID: apprentis.isic@epfl.ch
       data hash MD5: 64K
       D7 AB B6 48 D1 FB C7 98 DC B9 6E D1 0F 08 16 88>)
(   9,<2023-11-01 09:58:53.323 +0100>,<nmrsu>,<nmrf492r>,<proc1d>,<TopSpin 4.1.4>,
      <Start of raw data processing
       em LB = 0.3 SI = 64K 
       data hash MD5: 64K
       2B 5C 0F E7 76 5C 8C 6D 34 AF D1 20 8E DB 94 1F>)
(  10,<2023-11-01 09:58:53.618 +0100>,<nmrsu>,<nmrf492r>,<proc1d>,<TopSpin 4.1.4>,
      <ft FT_mod = 6 PKNL = 1 SI = 64K 
       data hash MD5: 64K
       67 20 60 1B 20 6C B7 FB A5 5C 87 6F 9E 79 33 1B>)
(  11,<2023-11-01 09:58:53.798 +0100>,<nmrsu>,<nmrf492r>,<proc1d>,<TopSpin 4.1.4>,
      <apk 
       data hash MD5: 64K
       7B A7 98 A8 DC 37 E5 BE 41 87 D5 8A 62 F5 CB 0B>)
(  12,<2023-11-01 09:58:53.833 +0100>,<nmrsu>,<nmrf492r>,<proc1d>,<TopSpin 4.1.4>,
      <abs n ABSG = 5 
       data hash MD5: 64K
       C6 33 DD EF 49 10 A2 16 39 35 73 0F 18 24 C3 48>)
$$ ##END=
$$ 
$$ $$ hash MD5
$$ $$ A1 6A 81 57 32 64 BB 87 37 A1 0B 93 0C 22 C7 40
##$RELAX= 
##$BRUKER FILE EXP=format.temp
$$ EDIT_PAR COMMAND FILE
$$ 
$$ DI_MODE         LONG
$$ ED_ENTRY        ACQU
$$ ORDER           FILE
$$ 
$$ 
$$ HEADER		"F2 - Acquisition Parameters"
$$ T_NAME		Date_
$$ 		TYPE	R64
$$ 		CLASS	ACQU
$$ 		SUBRANGE 0.0 50000000
$$ 		REL	"Date_=itodate(DATE)"
$$ 		INV_REL	"DATE=datetoi(Date_,DATE)"
$$ 		FORMAT	"%14.0f"
$$ 		TEXT	" "
$$ END
$$ T_NAME		Time
$$ 		TYPE	R32
$$ 		CLASS	ACQU
$$ 		SUBRANGE 0.0 1000000
$$ 		REL	"Time=itotime(DATE)"
$$ 		INV_REL	"DATE=timetoi(Time,DATE)"
$$ 		FORMAT	"%14.2f h"
$$ 		TEXT	" "
$$ END
$$ NAME		INSTRUM
$$ 		TEXT	" "
$$ END
$$ NAME		PROBHD
$$ 		FORMAT	"%14.14s"
$$ 		TEXT	" "
$$ END
$$ NAME		PULPROG
$$ 		TEXT	" "
$$ END
$$ NAME		TD
$$ 		TEXT	" "
$$ END
$$ NAME		SOLVENT
$$ 		TEXT	" "
$$ END
$$ NAME		NS
$$ 		TEXT	" "
$$ END
$$ NAME		DS
$$ 		TEXT	" "
$$ END
$$ T_NAME		SWH
$$ 		TYPE	R32
$$ 		CLASS	ACQU
$$ 		SUBRANGE 0.0 1e8
$$ 		REL	"SWH=SW*SFO1"
$$ 		INV_REL "SW=SWH/SFO1"
$$ 		UNIT	"Hz"
$$ 		FORMAT	"%14.3f Hz"
$$ 		TEXT	" "
$$ END
$$ T_NAME          FIDRES
$$                 TYPE    R32
$$                 CLASS   ACQU
$$                 SUBRANGE 0.0 100000
$$                 REL     "FIDRES=2*SW*SFO1/TD"
$$                 INV_REL "TD = nextpow(2*SW*SFO1/FIDRES)"
$$ 		UNIT	"Hz"
$$ 		FORMAT	"%14.6f Hz"
$$ 		TEXT	" "
$$ END
$$ T_NAME          AQ
$$ 		TYPE	R32
$$ 		CLASS	ACQU
$$ 		SUBRANGE 0.0 1000
$$ 		REL	"AQ=aqcalc(SW,SFO1,TD,DIGTYP)"
$$ 		INV_REL	"TD=tdcalc(SW,SFO1,1.0e6*AQ,DIGTYP)"
$$ 		UNIT	"sec"
$$ 		FORMAT	"%14.7f sec"
$$ 		TEXT	" "
$$ END
$$ NAME		RG
$$ 		TEXT	" "
$$ END
$$ T_NAME          DW
$$ 		TYPE	R32
$$ 		CLASS	ACQU
$$ 		SUBRANGE 0.0 1000000
$$ 		REL	"DW=1/(2*SW*SFO1)"
$$ 		INV_REL	"SW=1000000/(2*(0.005+DW)*SFO1)"
$$ 		UNIT	"usec"
$$ 		FORMAT	"%14.3lf usec"
$$ 		TEXT	" "
$$ END
$$ NAME		DE
$$ 		FORMAT	"%14.2f usec"
$$ 		TEXT	" "
$$ END
$$ NAME		TE
$$ 		FORMAT	"%14.1f K"
$$ 		TEXT	" "
$$ END
$$ T_NAME		D1
$$ TYPE	R32
$$ CLASS	ACQU
$$ SUBRANGE 0.0 1e38
$$ REL	"D1=D[1]"
$$ INV_REL	"D[1]=D1"
$$ UNIT	"sec"
$$ FORMAT	"%14.8f sec"
$$ TEXT	" "
$$ END
$$ NAME		TD0
$$ 		TEXT	" "
$$ END
$$ NAME		SFO1
$$ FORMAT	"%14.7f MHz"
$$ TEXT	" "
$$ END
$$ NAME		NUC1
$$ NONEDIT
$$ TEXT	" "
$$ END
$$ T_NAME		P0
$$ TYPE	R32
$$ CLASS	ACQU
$$ SUBRANGE 0.0 1.0e10
$$ REL	"P0=P[0]"
$$ INV_REL	"P[0]=P0"
$$ UNIT	"usec"
$$ FORMAT	"%14.2f usec"
$$ TEXT	" "
$$ END
$$ T_NAME		P1
$$ TYPE	R32
$$ CLASS	ACQU
$$ SUBRANGE 0.0 1.0e10
$$ REL	"P1=P[1]"
$$ INV_REL	"P[1]=P1"
$$ UNIT	"usec"
$$ FORMAT	"%14.2f usec"
$$ TEXT	" "
$$ END
$$ T_NAME		PLW1
$$ TYPE	R32
$$ CLASS	ACQU
$$ REL	"PLW1=PLW[1]"
$$ INV_REL	"PLW[1]=PLW1"
$$ UNIT	"W"
$$ FORMAT	"%14.8f W"
$$ TEXT	"power PLW1 "
$$ END
##$RELAX= 
##$BRUKER FILE EXP=scon2
$$ ##TITLE= Parameter file, TopSpin 4.1.4
$$ ##JCAMPDX= 5.0
$$ ##DATATYPE= Parameter Values
$$ ##NPOINTS= 1	$$ modification sequence number
$$ ##ORIGIN= Bruker BioSpin GmbH
$$ ##OWNER= nmrsu
$$ $$ 2023-07-09 00:40:48.411 +0200  nmrsu@nmrf492r
$$ $$ /opt/data/apprentis.isic@epfl.ch/nmr/8d93b60875bb_reference_108-24-7/6/scon2
$$ $$ process /opt/topspin4.1.4/prog/mod/acqdataserver
$$ ##$BLKTR= (0..32)
$$ 3 3 3 3 3 3 3 3 3 3 3 3 3 3 3 3 3 3 3 3 3 3 3 3 3 3 3 3 3 3 3 3 3
$$ ##$DE1= 4.5
$$ ##$DEADC= 0.5
$$ ##$DEPA= 4.5
$$ ##$DERX= 1.5
$$ ##$GRADPRE= (0..1)
$$ 10 10
$$ ##$HD_BLKTR= (0..32)
$$ 1 1 1 1 1 1 1 1 1 1 1 1 1 1 1 1 1 1 1 1 1 1 1 1 1 1 1 1 1 1 1 1 1
$$ ##$HD_DE1= 5
$$ ##$HD_DEADC= 0
$$ ##$HD_DEPA= 2.5
$$ ##$HD_DERX= 0
$$ ##END=
##$RELAX= 
##$BRUKER FILE EXP=prosol_History
##$RELAX= 
##$BRUKER FILE EXP=shimvalues
$$ # Sat Jul  8 22:55:47 2023
$$ #$$PROBEIDENTIFIER=Z108618_0808
$$ #$$PROBENAME=PA BBO 400S1 BBF-H-D-05 Z
$$ #$$SHIMID=313232
$$ #
$$ # Active Shim Gradients
$$ #
$$ Z           		8619            
$$ Z2          		4456            
$$ Z3          		-977            
$$ Z4          		-7845           
$$ Z5          		4675            
$$ Z6          		25374           
$$ X           		-10762          
$$ XZ          		-1407           
$$ XZ2         		-800            
$$ XZ3         		2230            
$$ Y           		3513            
$$ YZ          		19923           
$$ YZ2         		27262           
$$ YZ3         		-7930           
$$ XY          		-612            
$$ XYZ         		10082           
$$ (X2-Y2)     		-22912          
$$ (X2-Y2)Z    		8771            
$$ X3          		-1763           
$$ Y3          		2664            
$$ #
$$ # Lock Parameter
$$ #
$$ FIELD		6785.369
$$ LOCKPHASE		 341.100
$$ LOCKPOWER		 -30.000
$$ LOCKGAIN		 134.177
$$ LOCKDC		 -75.000
$$ LOCKSHIFT		   7.240
$$ LOOPGAIN		 -12.000
$$ LOOPTIME		   0.400
$$ LOOPFILTER		 100.000
$$ #
$$ IEEE64_VERSION_CODE 1
$$ #
$$ # Shim currents 
$$ #
$$ SHIM_SETTING [ 1]     4180.23241859
$$ SHIM_SETTING [ 2]     2205.74546853
$$ SHIM_SETTING [ 3]     -513.90589987
$$ SHIM_SETTING [ 4]    -4126.54983261
$$ SHIM_SETTING [ 5]     2459.14788350
$$ SHIM_SETTING [ 6]    -5660.81199994
$$ SHIM_SETTING [ 7]     -740.08199999
$$ SHIM_SETTING [ 8]     -420.80000000
$$ SHIM_SETTING [ 9]   -12051.71199987
$$ SHIM_SETTING [10]     -321.91200000
$$ SHIM_SETTING [11]     1847.83799998
$$ SHIM_SETTING [12]    10479.49799988
$$ SHIM_SETTING [13]    14339.81199984
$$ SHIM_SETTING [14]    -4171.18099995
$$ SHIM_SETTING [15]    13346.68136652
$$ SHIM_SETTING [16]     4613.28699995
$$ SHIM_SETTING [17]     1173.08999999
$$ SHIM_SETTING [18]     5303.07899994
$$ SHIM_SETTING [19]     -927.57899999
$$ SHIM_SETTING [20]     1401.22599998
##$RELAX= 
##$BRUKER FILE EXP=uxnmr.par
$$ ##TITLE= Parameter file, TopSpin 4.1.4
$$ ##JCAMPDX= 5.0
$$ ##DATATYPE= Parameter Values
$$ ##NPOINTS= 2	$$ modification sequence number
$$ ##ORIGIN= Bruker BioSpin GmbH
$$ ##OWNER= root
$$ $$ 2022-02-07 06:59:35.571 +0000  root@BladeEpu
$$ $$ /opt/topspin/conf/instr/spect/uxnmr.par
$$ $$ process /opt/topspin/prog/mod/hconfserver
$$ ##$ACBTAT= (0..64)
$$ 0 66 72 50 0 0 0 0 0 0 0 0 0 0 0 0 0 0 0 0 0 0 0 0 0 0 0 0 0 0 0 0 0 0
$$ 0 0 0 0 0 0 0 0 0 0 0 0 0 0 0 0 0 0 0 0 0 0 0 0 0 0 0 0 0 0 0
$$ ##$ACBTBLK= (0..64)
$$ 0 34 33 41 0 0 0 0 0 0 0 0 0 0 0 0 0 0 0 0 0 0 0 0 0 0 0 0 0 0 0 0 0 0
$$ 0 0 0 0 0 0 0 0 0 0 0 0 0 0 0 0 0 0 0 0 0 0 0 0 0 0 0 0 0 0 0
$$ ##$ACBTCTL= (0..64)
$$ 0 6 6 6 0 0 0 0 0 0 0 0 0 0 0 0 0 0 0 0 0 0 0 0 0 0 0 0 0 0 0 0 0 0 0 0
$$ 0 0 0 0 0 0 0 0 0 0 0 0 0 0 0 0 0 0 0 0 0 0 0 0 0 0 0 0 0
$$ ##$ACBTDI= (0..64)
$$ 0 -1062706420 -1062706420 -1062706421 0 0 0 0 0 0 0 0 0 0 0 0 0 0 0 0 0
$$ 0 0 0 0 0 0 0 0 0 0 0 0 0 0 0 0 0 0 0 0 0 0 0 0 0 0 0 0 0 0 0 0 0 0 0 0
$$ 0 0 0 0 0 0 0 0
$$ ##$ACBTDM= (0..64)
$$ 0 10 25 10 0 0 0 0 0 0 0 0 0 0 0 0 0 0 0 0 0 0 0 0 0 0 0 0 0 0 0 0 0 0
$$ 0 0 0 0 0 0 0 0 0 0 0 0 0 0 0 0 0 0 0 0 0 0 0 0 0 0 0 0 0 0 0
$$ ##$ACBTFHI= (0..64)
$$ 0 600 600 62 0 0 0 0 0 0 0 0 0 0 0 0 0 0 0 0 0 0 0 0 0 0 0 0 0 0 0 0 0
$$ 0 0 0 0 0 0 0 0 0 0 0 0 0 0 0 0 0 0 0 0 0 0 0 0 0 0 0 0 0 0 0 0
$$ ##$ACBTFL= (0..64)
$$ 0 248 248 8 0 0 0 0 0 0 0 0 0 0 0 0 0 0 0 0 0 0 0 0 0 0 0 0 0 0 0 0 0 0
$$ 0 0 0 0 0 0 0 0 0 0 0 0 0 0 0 0 0 0 0 0 0 0 0 0 0 0 0 0 0 0 0
$$ ##$ACBTFLO= (0..64)
$$ 0 15 180 60 0 0 0 0 0 0 0 0 0 0 0 0 0 0 0 0 0 0 0 0 0 0 0 0 0 0 0 0 0 0
$$ 0 0 0 0 0 0 0 0 0 0 0 0 0 0 0 0 0 0 0 0 0 0 0 0 0 0 0 0 0 0 0
$$ ##$ACBTINP= (0..64)
$$ 0 2 1 9 0 0 0 0 0 0 0 0 0 0 0 0 0 0 0 0 0 0 0 0 0 0 0 0 0 0 0 0 0 0 0 0
$$ 0 0 0 0 0 0 0 0 0 0 0 0 0 0 0 0 0 0 0 0 0 0 0 0 0 0 0 0 0
$$ ##$ACBTOUT= (0..64)
$$ 0 0 3 1 0 0 0 0 0 0 0 0 0 0 0 0 0 0 0 0 0 0 0 0 0 0 0 0 0 0 0 0 0 0 0 0
$$ 0 0 0 0 0 0 0 0 0 0 0 0 0 0 0 0 0 0 0 0 0 0 0 0 0 0 0 0 0
$$ ##$ACBTPO= (0..64)
$$ 0 500000 100000 5000 0 0 0 0 0 0 0 0 0 0 0 0 0 0 0 0 0 0 0 0 0 0 0 0 0
$$ 0 0 0 0 0 0 0 0 0 0 0 0 0 0 0 0 0 0 0 0 0 0 0 0 0 0 0 0 0 0 0 0 0 0 0 0
$$ ##$ACBTPW= (0..64)
$$ 0 100 100 1000 0 0 0 0 0 0 0 0 0 0 0 0 0 0 0 0 0 0 0 0 0 0 0 0 0 0 0 0
$$ 0 0 0 0 0 0 0 0 0 0 0 0 0 0 0 0 0 0 0 0 0 0 0 0 0 0 0 0 0 0 0 0 0
$$ ##$ACBTSB= (0..64)
$$ 0 8227 8260 0 0 0 0 0 0 0 0 0 0 0 0 0 0 0 0 0 0 0 0 0 0 0 0 0 0 0 0 0 0
$$ 0 0 0 0 0 0 0 0 0 0 0 0 0 0 0 0 0 0 0 0 0 0 0 0 0 0 0 0 0 0 0 0
$$ ##$ACBTSDT= (0..64)
$$ 0 2 2 2 0 0 0 0 0 0 0 0 0 0 0 0 0 0 0 0 0 0 0 0 0 0 0 0 0 0 0 0 0 0 0 0
$$ 0 0 0 0 0 0 0 0 0 0 0 0 0 0 0 0 0 0 0 0 0 0 0 0 0 0 0 0 0
$$ ##$AMPDFLT= no
$$ ##$AdmCrpWbWiring= (0..1)
$$ 0 0
$$ ##$AppEth= <no>
$$ ##$AppPort= <no>
$$ ##$BACSAIR= yes
$$ ##$BACSCAP= 0
$$ ##$BACSDEL= 10
$$ ##$BACSFCM= no
$$ ##$BACSOPT= <>
$$ ##$BACSTY= <no>
$$ ##$BFREQ= 400.13
$$ ##$BGAETH= (0..9)
$$ <no> <no> <no> <no> <no> <no> <no> <no> <no> <no>
$$ ##$BIRDS= yes
$$ ##$BMPC= 0
$$ ##$BMPCTY= <no>
$$ ##$BPSUTY= <no>
$$ ##$BSAETH= (0..9)
$$ <no> <no> <no> <no> <no> <no> <no> <no> <no> <no>
$$ ##$BSMS= 2
$$ ##$BSMS19FLock= no
$$ ##$BSMSETH= <192.168.99.11>
$$ ##$BgaChFac2= (0..9)
$$ 0 0 0 0 0 0 0 0 0 0
$$ ##$BgaChMap= (0..9)
$$ 0 0 0 0 0 0 0 0 0 0
$$ ##$BgaChMaxv= (0..9)
$$ 0 0 0 0 0 0 0 0 0 0
$$ ##$BgaChRouting= (0..63)
$$ 0 0 0 0 0 0 0 0 0 0 0 0 0 0 0 0 0 0 0 0 0 0 0 0 0 0 0 0 0 0 0 0 0 0 0 0
$$ 0 0 0 0 0 0 0 0 0 0 0 0 0 0 0 0 0 0 0 0 0 0 0 0 0 0 0 0
$$ ##$BgaChShimMap= (0..9)
$$ 0 0 0 0 0 0 0 0 0 0
$$ ##$BgaChShimMaxv= (0..9)
$$ 0 0 0 0 0 0 0 0 0 0
$$ ##$BlaEth= (0..31)
$$ <192.168.99.12> <192.168.99.11> <no> <no> <no> <no> <no> <no> <no> <no>
$$ <no> <no> <no> <no> <no> <no> <no> <no> <no> <no> <no> <no> <no> <no> <no>
$$ <no> <no> <no> <no> <no> <no> <no>
$$ ##$BlaHpLpViaTTL= (0..31)
$$ 0 0 0 0 0 0 0 0 0 0 0 0 0 0 0 0 0 0 0 0 0 0 0 0 0 0 0 0 0 0 0 0
$$ ##$BlaNam= (0..31)
$$ <AV4 BLABBH500/100 200-600> <BSMS/2 LOCK TRANSCEIVER 400> <> <> <> <> <>
$$ <> <> <> <> <> <> <> <> <> <> <> <> <> <> <> <> <> <> <> <> <> <> <> <>
$$ <>
$$ ##$BlaPN= (0..31)
$$ <W144061> <Z109888> <> <> <> <> <> <> <> <> <> <> <> <> <> <> <> <> <>
$$ <> <> <> <> <> <> <> <> <> <> <> <> <>
$$ ##$BlaSN= (0..31)
$$ <000093> <02329> <> <> <> <> <> <> <> <> <> <> <> <> <> <> <> <> <> <>
$$ <> <> <> <> <> <> <> <> <> <> <> <>
$$ ##$BmuEth= <no>
$$ ##$BmuFw= <no>
$$ ##$BmuPn= <no>
$$ ##$BmuSn= <no>
$$ ##$BnlEth= <no>
$$ ##$BnlFw= <no>
$$ ##$BnlPn= <no>
$$ ##$BnlSn= <no>
$$ ##$BpduEth= (0..7)
$$ <no> <no> <no> <no> <no> <no> <no> <no>
$$ ##$BsaChMap1= (0..9)
$$ 0 0 0 0 0 0 0 0 0 0
$$ ##$BsaChMap2= (0..9)
$$ 0 0 0 0 0 0 0 0 0 0
$$ ##$BsaChShimMaxv= (0..9)
$$ 0 0 0 0 0 0 0 0 0 0
$$ ##$BsmsAuxEth= <no>
$$ ##$BsmsLockNuclei= (0..15)
$$ <2H> <no> <no> <no> <no> <no> <no> <no> <no> <no> <no> <no> <no> <no> <no>
$$ <no>
$$ ##$CPDBTY= <no>
$$ ##$CRCOTY= <no>
$$ ##$CSW1= (0..31)
$$ 2 1 9 0 0 0 0 0 0 0 0 0 0 0 0 0 0 0 0 0 0 0 0 0 0 0 0 0 0 0 0 0
$$ ##$CSW2= (0..31)
$$ 0 0 0 0 0 0 0 0 0 0 0 0 0 0 0 0 0 0 0 0 0 0 0 0 0 0 0 0 0 0 0 0
$$ ##$CSWNUM= (0..15)
$$ 2 1 0 0 0 0 0 0 0 0 0 0 0 0 0 0
$$ ##$ConsolePnSn= <HCAB-40 / 57>
$$ ##$CryoCoolUnitEth= <no>
$$ ##$CryoCoolUnitFw= <no>
$$ ##$CryoCoolUnitPn= <no>
$$ ##$CryoCoolUnitSn= <no>
$$ ##$CryoProAccPnSn= <>
$$ ##$Ctb1Eth= <no>
$$ ##$CustRegisterNo= <>
$$ ##$DATSTAT= no
$$ ##$DPPFAC= 1
$$ ##$DRU= no
$$ ##$DateTimeCreated= <2022-02-07T06:58:43+0000>
$$ ##$Description= <AV4 400 MHZ>
$$ ##$DppType= 0
$$ ##$DrxFiltGrpDel= (0..23)
$$ <68,36,20,9,5,3,2> <68,36,20,9,5,3,2> <> <> <> <> <> <> <> <> <> <> <>
$$ <> <> <> <> <> <> <> <> <> <> <>
$$ ##$EcuType= 1
$$ ##$EpuMacAddress= <00:13:95:26:68:3c>
$$ ##$FCubeDrxDevice= (0..23)
$$ </dev/bbu/drx3.5> </dev/bbu/drx4.5> <> <> <> <> <> <> <> <> <> <> <> <>
$$ <> <> <> <> <> <> <> <> <> <>
$$ ##$FCubeEth= (0..23)
$$ <192.168.180.14> <192.168.180.18> <no> <no> <no> <no> <no> <no> <no> <no>
$$ <no> <no> <no> <no> <no> <no> <no> <no> <no> <no> <no> <no> <no> <no>
$$ ##$FCubeRtdDevice= (0..23)
$$ </dev/bbu/rtd3.4> </dev/bbu/rtd4.4> <> <> <> <> <> <> <> <> <> <> <> <>
$$ <> <> <> <> <> <> <> <> <> <>
$$ ##$FCubeSeqDevice= (0..23)
$$ <> <> <> <> <> <> <> <> <> <> <> <> <> <> <> <> <> <> <> <> <> <> <> <>
$$ ##$FGSVTY= <no>
$$ ##$FRONTTY= <no>
$$ ##$FUNCMOD= <>
$$ ##$FourPeriBdEth= <no>
$$ ##$FourShimBdEth= <no>
$$ ##$FourierPicsCon= no
$$ ##$FuncModBisDat= (0..7)
$$ 0 0 0 0 0 0 0 0
$$ ##$FuncModFRange= (0..7)
$$ <> <> <> <> <> <> <> <>
$$ ##$FuncModPN= (0..7)
$$ <> <> <> <> <> <> <> <>
$$ ##$FuncModSN= (0..7)
$$ <> <> <> <> <> <> <> <>
$$ ##$GCUTYPE= 20
$$ ##$GCubeEth= <192.168.180.38>
$$ ##$GCubeFpfAddr= (0..9)
$$ -1 -1 -1 -1 -1 -1 -1 -1 -1 -1
$$ ##$GCubeProcDevice= (0..1)
$$ </dev/bbu/gproc9.7> <no>
$$ ##$GCubeRtdDevice= (0..1)
$$ </dev/bbu/rtd9.4> <no>
$$ ##$GCubeSeqDevice= (0..1)
$$ <> <>
$$ ##$GCubeSpfAddr= (0..63)
$$ -1 -1 -1 -1 -1 -1 -1 -1 -1 -1 -1 -1 -1 -1 -1 -1 -1 -1 -1 -1 -1 -1 -1 -1
$$ -1 -1 -1 -1 -1 -1 -1 -1 -1 -1 -1 -1 -1 -1 -1 -1 -1 -1 -1 -1 -1 -1 -1 -1
$$ -1 -1 -1 -1 -1 -1 -1 -1 -1 -1 -1 -1 -1 -1 -1 -1
$$ ##$GPREDEL= 0
$$ ##$GPSCUTY= <no>
$$ ##$GRADRES= 1
$$ ##$Gctu2Eth= <no>
$$ ##$GcubeSaCtrEth= <no>
$$ ##$GradAmpMaxCurX= (0..10)
$$ 0 0 0 0 0 0 0 0 0 0 0
$$ ##$GradAmpMaxCurY= (0..10)
$$ 0 0 0 0 0 0 0 0 0 0 0
$$ ##$GradAmpMaxCurZ= (0..10)
$$ 9.99999904632568 0 0 0 0 0 0 0 0 0 0
$$ ##$GradAmpName= (0..9)
$$ <GAB in BSMS> <> <> <> <> <> <> <> <> <>
$$ ##$GradAmpPN= (0..9)
$$ <> <> <> <> <> <> <> <> <> <>
$$ ##$GradAmpSN= (0..9)
$$ <> <> <> <> <> <> <> <> <> <>
$$ ##$GradAmpType= (0..10)
$$ 2 0 0 0 0 0 0 0 0 0 0
$$ ##$GradPowClkTime= (0..9)
$$ 0 0 0 0 0 0 0 0 0 0
$$ ##$GradPowIcw= (0..9)
$$ 0 0 0 0 0 0 0 0 0 0
$$ ##$GradPowImax= (0..9)
$$ 0 0 0 0 0 0 0 0 0 0
$$ ##$GradPowType= (0..9)
$$ 0 0 0 0 0 0 0 0 0 0
$$ ##$GradPowVmax= (0..9)
$$ 0 0 0 0 0 0 0 0 0 0
$$ ##$HPTXLP= (0..3)
$$ -1 -1 -1 -1
$$ ##$HPTXPI= (0..3)
$$ 0 0 0 0
$$ ##$HPTXPO= (0..3)
$$ 0 0 0 0
$$ ##$HPTXTY= (0..3)
$$ 0 0 0 0
$$ ##$HpprCoverType= 2
$$ ##$IPSOTYPE= 0
$$ ##$LDUETH= <no>
$$ ##$LOCKCONF= <DLM>
$$ ##$LOCSWID= 0
$$ ##$LOCSWIF= 0
$$ ##$Location= <>
$$ ##$LtMasEth= <no>
$$ ##$LtMasType= 0
$$ ##$MAS= 0
$$ ##$MASETIME= 10
$$ ##$MASITIME= 10
$$ ##$MASTY= <no>
$$ ##$MAS_CT= 5
$$ ##$MAS_SG= 0
$$ ##$MAS_TO= 0
$$ ##$MagnCoilPnSn= <BZH0104070I02>
$$ ##$MagnDewarPnSn= <D325-54-6794>
$$ ##$MagnetPolarity= 1
$$ ##$MasEth= <no>
$$ ##$NAMPD= (0..32)
$$ <> <HPLNA 19F1H> <2H> <XBB19F 2HP> <> <> <> <> <> <> <> <> <> <> <> <>
$$ <> <> <> <> <> <> <> <> <> <> <> <> <> <> <> <> <>
$$ ##$NFCU= 2
$$ ##$NRCU= 2
$$ ##$NROUT= 0
$$ ##$NSGU= 2
$$ ##$NumActDetuneCtr= 0
$$ ##$NumVpu= 0
$$ ##$OrderNo= <HCAB-40_00057>
$$ ##$POWCHK= yes
$$ ##$PRAMD1= (0..7)
$$ 6 0 0 1610612736 0 0 0 0
$$ ##$PRAMD10= (0..7)
$$ 0 0 0 0 0 0 0 0
$$ ##$PRAMD11= (0..7)
$$ 0 0 0 0 0 0 0 0
$$ ##$PRAMD12= (0..7)
$$ 0 0 0 0 0 0 0 0
$$ ##$PRAMD13= (0..7)
$$ 0 0 0 0 0 0 0 0
$$ ##$PRAMD14= (0..7)
$$ 0 0 0 0 0 0 0 0
$$ ##$PRAMD15= (0..7)
$$ 0 0 0 0 0 0 0 0
$$ ##$PRAMD16= (0..7)
$$ 0 0 0 0 0 0 0 0
$$ ##$PRAMD17= (0..7)
$$ 0 0 0 0 0 0 0 0
$$ ##$PRAMD18= (0..7)
$$ 0 0 0 0 0 0 0 0
$$ ##$PRAMD19= (0..7)
$$ 0 0 0 0 0 0 0 0
$$ ##$PRAMD2= (0..7)
$$ 0 1048576 0 536870912 0 1048576 0 536870912
$$ ##$PRAMD20= (0..7)
$$ 0 0 0 0 0 0 0 0
$$ ##$PRAMD21= (0..7)
$$ 0 0 0 0 0 0 0 0
$$ ##$PRAMD22= (0..7)
$$ 0 0 0 0 0 0 0 0
$$ ##$PRAMD23= (0..7)
$$ 0 0 0 0 0 0 0 0
$$ ##$PRAMD24= (0..7)
$$ 0 0 0 0 0 0 0 0
$$ ##$PRAMD25= (0..7)
$$ 0 0 0 0 0 0 0 0
$$ ##$PRAMD26= (0..7)
$$ 0 0 0 0 0 0 0 0
$$ ##$PRAMD27= (0..7)
$$ 0 0 0 0 0 0 0 0
$$ ##$PRAMD28= (0..7)
$$ 0 0 0 0 0 0 0 0
$$ ##$PRAMD29= (0..7)
$$ 0 0 0 0 0 0 0 0
$$ ##$PRAMD3= (0..7)
$$ 2147483644 2147483647 2147483647 603979775 0 0 0 0
$$ ##$PRAMD30= (0..7)
$$ 0 0 0 0 0 0 0 0
$$ ##$PRAMD31= (0..7)
$$ 0 0 0 0 0 0 0 0
$$ ##$PRAMD32= (0..7)
$$ 0 0 0 0 0 0 0 0
$$ ##$PRAMD4= (0..7)
$$ 0 0 0 0 0 0 0 0
$$ ##$PRAMD5= (0..7)
$$ 0 0 0 0 0 0 0 0
$$ ##$PRAMD6= (0..7)
$$ 0 0 0 0 0 0 0 0
$$ ##$PRAMD7= (0..7)
$$ 0 0 0 0 0 0 0 0
$$ ##$PRAMD8= (0..7)
$$ 0 0 0 0 0 0 0 0
$$ ##$PRAMD9= (0..7)
$$ 0 0 0 0 0 0 0 0
$$ ##$PRAMLED= (0..1)
$$ 0 0
$$ ##$PRAMP= (0..9)
$$ <no> <no> <no> <no> <no> <no> <no> <no> <no> <no>
$$ ##$PRAMPTP= 1
$$ ##$PREEMPTYPE= 0
$$ ##$PREREC= (0..31)
$$ 1 1 2 0 0 0 0 0 0 0 0 0 0 0 0 0 0 0 0 0 0 0 0 0 0 0 0 0 0 0 0 0
$$ ##$PTSFMX= (0..23)
$$ 1290 1290 0 0 0 0 0 0 0 0 0 0 0 0 0 0 0 0 0 0 0 0 0 0
$$ ##$PULCHK= no
$$ ##$PduEth= (0..7)
$$ <192.168.99.99> <no> <no> <no> <no> <no> <no> <no>
$$ ##$PerMagATempSens= no
$$ ##$PerMagEth= <no>
$$ ##$PerMagFluxSens= no
$$ ##$PerMagMTempSens= no
$$ ##$PramDutyCycPerc= (0..31)
$$ 4 2 2 0 0 0 0 0 0 0 0 0 0 0 0 0 0 0 0 0 0 0 0 0 0 0 0 0 0 0 0 0
$$ ##$PramPPowNucW1= (0..127)
$$ <> <> <> <> <> <> <> <> <> <> <> <> <> <> <> <> <> <> <> <> <> <> <> <>
$$ <> <> <> <> <> <> <> <> <> <> <> <> <> <> <> <> <> <> <> <> <> <> <> <>
$$ <> <> <> <> <> <> <> <> <> <> <> <> <> <> <> <> <> <> <> <> <> <> <> <>
$$ <> <> <> <> <> <> <> <> <> <> <> <> <> <> <> <> <> <> <> <> <> <> <> <>
$$ <> <> <> <> <> <> <> <> <> <> <> <> <> <> <> <> <> <> <> <> <> <> <> <>
$$ <> <> <> <> <> <> <> <>
$$ ##$PramPPowNucW10= (0..127)
$$ <> <> <> <> <> <> <> <> <> <> <> <> <> <> <> <> <> <> <> <> <> <> <> <>
$$ <> <> <> <> <> <> <> <> <> <> <> <> <> <> <> <> <> <> <> <> <> <> <> <>
$$ <> <> <> <> <> <> <> <> <> <> <> <> <> <> <> <> <> <> <> <> <> <> <> <>
$$ <> <> <> <> <> <> <> <> <> <> <> <> <> <> <> <> <> <> <> <> <> <> <> <>
$$ <> <> <> <> <> <> <> <> <> <> <> <> <> <> <> <> <> <> <> <> <> <> <> <>
$$ <> <> <> <> <> <> <> <>
$$ ##$PramPPowNucW11= (0..127)
$$ <> <> <> <> <> <> <> <> <> <> <> <> <> <> <> <> <> <> <> <> <> <> <> <>
$$ <> <> <> <> <> <> <> <> <> <> <> <> <> <> <> <> <> <> <> <> <> <> <> <>
$$ <> <> <> <> <> <> <> <> <> <> <> <> <> <> <> <> <> <> <> <> <> <> <> <>
$$ <> <> <> <> <> <> <> <> <> <> <> <> <> <> <> <> <> <> <> <> <> <> <> <>
$$ <> <> <> <> <> <> <> <> <> <> <> <> <> <> <> <> <> <> <> <> <> <> <> <>
$$ <> <> <> <> <> <> <> <>
$$ ##$PramPPowNucW12= (0..127)
$$ <> <> <> <> <> <> <> <> <> <> <> <> <> <> <> <> <> <> <> <> <> <> <> <>
$$ <> <> <> <> <> <> <> <> <> <> <> <> <> <> <> <> <> <> <> <> <> <> <> <>
$$ <> <> <> <> <> <> <> <> <> <> <> <> <> <> <> <> <> <> <> <> <> <> <> <>
$$ <> <> <> <> <> <> <> <> <> <> <> <> <> <> <> <> <> <> <> <> <> <> <> <>
$$ <> <> <> <> <> <> <> <> <> <> <> <> <> <> <> <> <> <> <> <> <> <> <> <>
$$ <> <> <> <> <> <> <> <>
$$ ##$PramPPowNucW13= (0..127)
$$ <> <> <> <> <> <> <> <> <> <> <> <> <> <> <> <> <> <> <> <> <> <> <> <>
$$ <> <> <> <> <> <> <> <> <> <> <> <> <> <> <> <> <> <> <> <> <> <> <> <>
$$ <> <> <> <> <> <> <> <> <> <> <> <> <> <> <> <> <> <> <> <> <> <> <> <>
$$ <> <> <> <> <> <> <> <> <> <> <> <> <> <> <> <> <> <> <> <> <> <> <> <>
$$ <> <> <> <> <> <> <> <> <> <> <> <> <> <> <> <> <> <> <> <> <> <> <> <>
$$ <> <> <> <> <> <> <> <>
$$ ##$PramPPowNucW14= (0..127)
$$ <> <> <> <> <> <> <> <> <> <> <> <> <> <> <> <> <> <> <> <> <> <> <> <>
$$ <> <> <> <> <> <> <> <> <> <> <> <> <> <> <> <> <> <> <> <> <> <> <> <>
$$ <> <> <> <> <> <> <> <> <> <> <> <> <> <> <> <> <> <> <> <> <> <> <> <>
$$ <> <> <> <> <> <> <> <> <> <> <> <> <> <> <> <> <> <> <> <> <> <> <> <>
$$ <> <> <> <> <> <> <> <> <> <> <> <> <> <> <> <> <> <> <> <> <> <> <> <>
$$ <> <> <> <> <> <> <> <>
$$ ##$PramPPowNucW15= (0..127)
$$ <> <> <> <> <> <> <> <> <> <> <> <> <> <> <> <> <> <> <> <> <> <> <> <>
$$ <> <> <> <> <> <> <> <> <> <> <> <> <> <> <> <> <> <> <> <> <> <> <> <>
$$ <> <> <> <> <> <> <> <> <> <> <> <> <> <> <> <> <> <> <> <> <> <> <> <>
$$ <> <> <> <> <> <> <> <> <> <> <> <> <> <> <> <> <> <> <> <> <> <> <> <>
$$ <> <> <> <> <> <> <> <> <> <> <> <> <> <> <> <> <> <> <> <> <> <> <> <>
$$ <> <> <> <> <> <> <> <>
$$ ##$PramPPowNucW16= (0..127)
$$ <> <> <> <> <> <> <> <> <> <> <> <> <> <> <> <> <> <> <> <> <> <> <> <>
$$ <> <> <> <> <> <> <> <> <> <> <> <> <> <> <> <> <> <> <> <> <> <> <> <>
$$ <> <> <> <> <> <> <> <> <> <> <> <> <> <> <> <> <> <> <> <> <> <> <> <>
$$ <> <> <> <> <> <> <> <> <> <> <> <> <> <> <> <> <> <> <> <> <> <> <> <>
$$ <> <> <> <> <> <> <> <> <> <> <> <> <> <> <> <> <> <> <> <> <> <> <> <>
$$ <> <> <> <> <> <> <> <>
$$ ##$PramPPowNucW17= (0..127)
$$ <> <> <> <> <> <> <> <> <> <> <> <> <> <> <> <> <> <> <> <> <> <> <> <>
$$ <> <> <> <> <> <> <> <> <> <> <> <> <> <> <> <> <> <> <> <> <> <> <> <>
$$ <> <> <> <> <> <> <> <> <> <> <> <> <> <> <> <> <> <> <> <> <> <> <> <>
$$ <> <> <> <> <> <> <> <> <> <> <> <> <> <> <> <> <> <> <> <> <> <> <> <>
$$ <> <> <> <> <> <> <> <> <> <> <> <> <> <> <> <> <> <> <> <> <> <> <> <>
$$ <> <> <> <> <> <> <> <>
$$ ##$PramPPowNucW18= (0..127)
$$ <> <> <> <> <> <> <> <> <> <> <> <> <> <> <> <> <> <> <> <> <> <> <> <>
$$ <> <> <> <> <> <> <> <> <> <> <> <> <> <> <> <> <> <> <> <> <> <> <> <>
$$ <> <> <> <> <> <> <> <> <> <> <> <> <> <> <> <> <> <> <> <> <> <> <> <>
$$ <> <> <> <> <> <> <> <> <> <> <> <> <> <> <> <> <> <> <> <> <> <> <> <>
$$ <> <> <> <> <> <> <> <> <> <> <> <> <> <> <> <> <> <> <> <> <> <> <> <>
$$ <> <> <> <> <> <> <> <>
$$ ##$PramPPowNucW19= (0..127)
$$ <> <> <> <> <> <> <> <> <> <> <> <> <> <> <> <> <> <> <> <> <> <> <> <>
$$ <> <> <> <> <> <> <> <> <> <> <> <> <> <> <> <> <> <> <> <> <> <> <> <>
$$ <> <> <> <> <> <> <> <> <> <> <> <> <> <> <> <> <> <> <> <> <> <> <> <>
$$ <> <> <> <> <> <> <> <> <> <> <> <> <> <> <> <> <> <> <> <> <> <> <> <>
$$ <> <> <> <> <> <> <> <> <> <> <> <> <> <> <> <> <> <> <> <> <> <> <> <>
$$ <> <> <> <> <> <> <> <>
$$ ##$PramPPowNucW2= (0..127)
$$ <> <> <> <> <> <> <> <> <> <> <> <> <> <> <> <> <> <> <> <> <> <> <> <>
$$ <> <> <> <> <> <> <> <> <> <> <> <> <> <> <> <> <> <> <> <> <> <> <> <>
$$ <> <> <> <> <> <> <> <> <> <> <> <> <> <> <> <> <> <> <> <> <> <> <> <>
$$ <> <> <> <> <> <> <> <> <> <> <> <> <> <> <> <> <> <> <> <> <> <> <> <>
$$ <> <> <> <> <> <> <> <> <> <> <> <> <> <> <> <> <> <> <> <> <> <> <> <>
$$ <> <> <> <> <> <> <> <>
$$ ##$PramPPowNucW20= (0..127)
$$ <> <> <> <> <> <> <> <> <> <> <> <> <> <> <> <> <> <> <> <> <> <> <> <>
$$ <> <> <> <> <> <> <> <> <> <> <> <> <> <> <> <> <> <> <> <> <> <> <> <>
$$ <> <> <> <> <> <> <> <> <> <> <> <> <> <> <> <> <> <> <> <> <> <> <> <>
$$ <> <> <> <> <> <> <> <> <> <> <> <> <> <> <> <> <> <> <> <> <> <> <> <>
$$ <> <> <> <> <> <> <> <> <> <> <> <> <> <> <> <> <> <> <> <> <> <> <> <>
$$ <> <> <> <> <> <> <> <>
$$ ##$PramPPowNucW21= (0..127)
$$ <> <> <> <> <> <> <> <> <> <> <> <> <> <> <> <> <> <> <> <> <> <> <> <>
$$ <> <> <> <> <> <> <> <> <> <> <> <> <> <> <> <> <> <> <> <> <> <> <> <>
$$ <> <> <> <> <> <> <> <> <> <> <> <> <> <> <> <> <> <> <> <> <> <> <> <>
$$ <> <> <> <> <> <> <> <> <> <> <> <> <> <> <> <> <> <> <> <> <> <> <> <>
$$ <> <> <> <> <> <> <> <> <> <> <> <> <> <> <> <> <> <> <> <> <> <> <> <>
$$ <> <> <> <> <> <> <> <>
$$ ##$PramPPowNucW22= (0..127)
$$ <> <> <> <> <> <> <> <> <> <> <> <> <> <> <> <> <> <> <> <> <> <> <> <>
$$ <> <> <> <> <> <> <> <> <> <> <> <> <> <> <> <> <> <> <> <> <> <> <> <>
$$ <> <> <> <> <> <> <> <> <> <> <> <> <> <> <> <> <> <> <> <> <> <> <> <>
$$ <> <> <> <> <> <> <> <> <> <> <> <> <> <> <> <> <> <> <> <> <> <> <> <>
$$ <> <> <> <> <> <> <> <> <> <> <> <> <> <> <> <> <> <> <> <> <> <> <> <>
$$ <> <> <> <> <> <> <> <>
$$ ##$PramPPowNucW23= (0..127)
$$ <> <> <> <> <> <> <> <> <> <> <> <> <> <> <> <> <> <> <> <> <> <> <> <>
$$ <> <> <> <> <> <> <> <> <> <> <> <> <> <> <> <> <> <> <> <> <> <> <> <>
$$ <> <> <> <> <> <> <> <> <> <> <> <> <> <> <> <> <> <> <> <> <> <> <> <>
$$ <> <> <> <> <> <> <> <> <> <> <> <> <> <> <> <> <> <> <> <> <> <> <> <>
$$ <> <> <> <> <> <> <> <> <> <> <> <> <> <> <> <> <> <> <> <> <> <> <> <>
$$ <> <> <> <> <> <> <> <>
$$ ##$PramPPowNucW24= (0..127)
$$ <> <> <> <> <> <> <> <> <> <> <> <> <> <> <> <> <> <> <> <> <> <> <> <>
$$ <> <> <> <> <> <> <> <> <> <> <> <> <> <> <> <> <> <> <> <> <> <> <> <>
$$ <> <> <> <> <> <> <> <> <> <> <> <> <> <> <> <> <> <> <> <> <> <> <> <>
$$ <> <> <> <> <> <> <> <> <> <> <> <> <> <> <> <> <> <> <> <> <> <> <> <>
$$ <> <> <> <> <> <> <> <> <> <> <> <> <> <> <> <> <> <> <> <> <> <> <> <>
$$ <> <> <> <> <> <> <> <>
$$ ##$PramPPowNucW25= (0..127)
$$ <> <> <> <> <> <> <> <> <> <> <> <> <> <> <> <> <> <> <> <> <> <> <> <>
$$ <> <> <> <> <> <> <> <> <> <> <> <> <> <> <> <> <> <> <> <> <> <> <> <>
$$ <> <> <> <> <> <> <> <> <> <> <> <> <> <> <> <> <> <> <> <> <> <> <> <>
$$ <> <> <> <> <> <> <> <> <> <> <> <> <> <> <> <> <> <> <> <> <> <> <> <>
$$ <> <> <> <> <> <> <> <> <> <> <> <> <> <> <> <> <> <> <> <> <> <> <> <>
$$ <> <> <> <> <> <> <> <>
$$ ##$PramPPowNucW26= (0..127)
$$ <> <> <> <> <> <> <> <> <> <> <> <> <> <> <> <> <> <> <> <> <> <> <> <>
$$ <> <> <> <> <> <> <> <> <> <> <> <> <> <> <> <> <> <> <> <> <> <> <> <>
$$ <> <> <> <> <> <> <> <> <> <> <> <> <> <> <> <> <> <> <> <> <> <> <> <>
$$ <> <> <> <> <> <> <> <> <> <> <> <> <> <> <> <> <> <> <> <> <> <> <> <>
$$ <> <> <> <> <> <> <> <> <> <> <> <> <> <> <> <> <> <> <> <> <> <> <> <>
$$ <> <> <> <> <> <> <> <>
$$ ##$PramPPowNucW27= (0..127)
$$ <> <> <> <> <> <> <> <> <> <> <> <> <> <> <> <> <> <> <> <> <> <> <> <>
$$ <> <> <> <> <> <> <> <> <> <> <> <> <> <> <> <> <> <> <> <> <> <> <> <>
$$ <> <> <> <> <> <> <> <> <> <> <> <> <> <> <> <> <> <> <> <> <> <> <> <>
$$ <> <> <> <> <> <> <> <> <> <> <> <> <> <> <> <> <> <> <> <> <> <> <> <>
$$ <> <> <> <> <> <> <> <> <> <> <> <> <> <> <> <> <> <> <> <> <> <> <> <>
$$ <> <> <> <> <> <> <> <>
$$ ##$PramPPowNucW28= (0..127)
$$ <> <> <> <> <> <> <> <> <> <> <> <> <> <> <> <> <> <> <> <> <> <> <> <>
$$ <> <> <> <> <> <> <> <> <> <> <> <> <> <> <> <> <> <> <> <> <> <> <> <>
$$ <> <> <> <> <> <> <> <> <> <> <> <> <> <> <> <> <> <> <> <> <> <> <> <>
$$ <> <> <> <> <> <> <> <> <> <> <> <> <> <> <> <> <> <> <> <> <> <> <> <>
$$ <> <> <> <> <> <> <> <> <> <> <> <> <> <> <> <> <> <> <> <> <> <> <> <>
$$ <> <> <> <> <> <> <> <>
$$ ##$PramPPowNucW29= (0..127)
$$ <> <> <> <> <> <> <> <> <> <> <> <> <> <> <> <> <> <> <> <> <> <> <> <>
$$ <> <> <> <> <> <> <> <> <> <> <> <> <> <> <> <> <> <> <> <> <> <> <> <>
$$ <> <> <> <> <> <> <> <> <> <> <> <> <> <> <> <> <> <> <> <> <> <> <> <>
$$ <> <> <> <> <> <> <> <> <> <> <> <> <> <> <> <> <> <> <> <> <> <> <> <>
$$ <> <> <> <> <> <> <> <> <> <> <> <> <> <> <> <> <> <> <> <> <> <> <> <>
$$ <> <> <> <> <> <> <> <>
$$ ##$PramPPowNucW3= (0..127)
$$ <> <> <> <> <> <> <> <> <> <> <> <> <> <> <> <> <> <> <> <> <> <> <> <>
$$ <> <> <> <> <> <> <> <> <> <> <> <> <> <> <> <> <> <> <> <> <> <> <> <>
$$ <> <> <> <> <> <> <> <> <> <> <> <> <> <> <> <> <> <> <> <> <> <> <> <>
$$ <> <> <> <> <> <> <> <> <> <> <> <> <> <> <> <> <> <> <> <> <> <> <> <>
$$ <> <> <> <> <> <> <> <> <> <> <> <> <> <> <> <> <> <> <> <> <> <> <> <>
$$ <> <> <> <> <> <> <> <>
$$ ##$PramPPowNucW30= (0..127)
$$ <> <> <> <> <> <> <> <> <> <> <> <> <> <> <> <> <> <> <> <> <> <> <> <>
$$ <> <> <> <> <> <> <> <> <> <> <> <> <> <> <> <> <> <> <> <> <> <> <> <>
$$ <> <> <> <> <> <> <> <> <> <> <> <> <> <> <> <> <> <> <> <> <> <> <> <>
$$ <> <> <> <> <> <> <> <> <> <> <> <> <> <> <> <> <> <> <> <> <> <> <> <>
$$ <> <> <> <> <> <> <> <> <> <> <> <> <> <> <> <> <> <> <> <> <> <> <> <>
$$ <> <> <> <> <> <> <> <>
$$ ##$PramPPowNucW31= (0..127)
$$ <> <> <> <> <> <> <> <> <> <> <> <> <> <> <> <> <> <> <> <> <> <> <> <>
$$ <> <> <> <> <> <> <> <> <> <> <> <> <> <> <> <> <> <> <> <> <> <> <> <>
$$ <> <> <> <> <> <> <> <> <> <> <> <> <> <> <> <> <> <> <> <> <> <> <> <>
$$ <> <> <> <> <> <> <> <> <> <> <> <> <> <> <> <> <> <> <> <> <> <> <> <>
$$ <> <> <> <> <> <> <> <> <> <> <> <> <> <> <> <> <> <> <> <> <> <> <> <>
$$ <> <> <> <> <> <> <> <>
$$ ##$PramPPowNucW32= (0..127)
$$ <> <> <> <> <> <> <> <> <> <> <> <> <> <> <> <> <> <> <> <> <> <> <> <>
$$ <> <> <> <> <> <> <> <> <> <> <> <> <> <> <> <> <> <> <> <> <> <> <> <>
$$ <> <> <> <> <> <> <> <> <> <> <> <> <> <> <> <> <> <> <> <> <> <> <> <>
$$ <> <> <> <> <> <> <> <> <> <> <> <> <> <> <> <> <> <> <> <> <> <> <> <>
$$ <> <> <> <> <> <> <> <> <> <> <> <> <> <> <> <> <> <> <> <> <> <> <> <>
$$ <> <> <> <> <> <> <> <>
$$ ##$PramPPowNucW4= (0..127)
$$ <> <> <> <> <> <> <> <> <> <> <> <> <> <> <> <> <> <> <> <> <> <> <> <>
$$ <> <> <> <> <> <> <> <> <> <> <> <> <> <> <> <> <> <> <> <> <> <> <> <>
$$ <> <> <> <> <> <> <> <> <> <> <> <> <> <> <> <> <> <> <> <> <> <> <> <>
$$ <> <> <> <> <> <> <> <> <> <> <> <> <> <> <> <> <> <> <> <> <> <> <> <>
$$ <> <> <> <> <> <> <> <> <> <> <> <> <> <> <> <> <> <> <> <> <> <> <> <>
$$ <> <> <> <> <> <> <> <>
$$ ##$PramPPowNucW5= (0..127)
$$ <> <> <> <> <> <> <> <> <> <> <> <> <> <> <> <> <> <> <> <> <> <> <> <>
$$ <> <> <> <> <> <> <> <> <> <> <> <> <> <> <> <> <> <> <> <> <> <> <> <>
$$ <> <> <> <> <> <> <> <> <> <> <> <> <> <> <> <> <> <> <> <> <> <> <> <>
$$ <> <> <> <> <> <> <> <> <> <> <> <> <> <> <> <> <> <> <> <> <> <> <> <>
$$ <> <> <> <> <> <> <> <> <> <> <> <> <> <> <> <> <> <> <> <> <> <> <> <>
$$ <> <> <> <> <> <> <> <>
$$ ##$PramPPowNucW6= (0..127)
$$ <> <> <> <> <> <> <> <> <> <> <> <> <> <> <> <> <> <> <> <> <> <> <> <>
$$ <> <> <> <> <> <> <> <> <> <> <> <> <> <> <> <> <> <> <> <> <> <> <> <>
$$ <> <> <> <> <> <> <> <> <> <> <> <> <> <> <> <> <> <> <> <> <> <> <> <>
$$ <> <> <> <> <> <> <> <> <> <> <> <> <> <> <> <> <> <> <> <> <> <> <> <>
$$ <> <> <> <> <> <> <> <> <> <> <> <> <> <> <> <> <> <> <> <> <> <> <> <>
$$ <> <> <> <> <> <> <> <>
$$ ##$PramPPowNucW7= (0..127)
$$ <> <> <> <> <> <> <> <> <> <> <> <> <> <> <> <> <> <> <> <> <> <> <> <>
$$ <> <> <> <> <> <> <> <> <> <> <> <> <> <> <> <> <> <> <> <> <> <> <> <>
$$ <> <> <> <> <> <> <> <> <> <> <> <> <> <> <> <> <> <> <> <> <> <> <> <>
$$ <> <> <> <> <> <> <> <> <> <> <> <> <> <> <> <> <> <> <> <> <> <> <> <>
$$ <> <> <> <> <> <> <> <> <> <> <> <> <> <> <> <> <> <> <> <> <> <> <> <>
$$ <> <> <> <> <> <> <> <>
$$ ##$PramPPowNucW8= (0..127)
$$ <> <> <> <> <> <> <> <> <> <> <> <> <> <> <> <> <> <> <> <> <> <> <> <>
$$ <> <> <> <> <> <> <> <> <> <> <> <> <> <> <> <> <> <> <> <> <> <> <> <>
$$ <> <> <> <> <> <> <> <> <> <> <> <> <> <> <> <> <> <> <> <> <> <> <> <>
$$ <> <> <> <> <> <> <> <> <> <> <> <> <> <> <> <> <> <> <> <> <> <> <> <>
$$ <> <> <> <> <> <> <> <> <> <> <> <> <> <> <> <> <> <> <> <> <> <> <> <>
$$ <> <> <> <> <> <> <> <>
$$ ##$PramPPowNucW9= (0..127)
$$ <> <> <> <> <> <> <> <> <> <> <> <> <> <> <> <> <> <> <> <> <> <> <> <>
$$ <> <> <> <> <> <> <> <> <> <> <> <> <> <> <> <> <> <> <> <> <> <> <> <>
$$ <> <> <> <> <> <> <> <> <> <> <> <> <> <> <> <> <> <> <> <> <> <> <> <>
$$ <> <> <> <> <> <> <> <> <> <> <> <> <> <> <> <> <> <> <> <> <> <> <> <>
$$ <> <> <> <> <> <> <> <> <> <> <> <> <> <> <> <> <> <> <> <> <> <> <> <>
$$ <> <> <> <> <> <> <> <>
$$ ##$PramPeakPowerW= (0..31)
$$ 4000 500 500 0 0 0 0 0 0 0 0 0 0 0 0 0 0 0 0 0 0 0 0 0 0 0 0 0 0 0 0 0
$$ ##$PramPowerSwitch= (0..31)
$$ 0 0 0 0 0 0 0 0 0 0 0 0 0 0 0 0 0 0 0 0 0 0 0 0 0 0 0 0 0 0 0 0
$$ ##$PramPulWidthMs= (0..31)
$$ 10 0.1 0.1 0 0 0 0 0 0 0 0 0 0 0 0 0 0 0 0 0 0 0 0 0 0 0 0 0 0 0 0 0
$$ ##$PreampModBisDat= (0..31)
$$ 20170831 20170803 20171010 0 0 0 0 0 0 0 0 0 0 0 0 0 0 0 0 0 0 0 0 0 0
$$ 0 0 0 0 0 0 0
$$ ##$PreampModPN= (0..31)
$$ <Z103203> <Z003471> <Z106984> <> <> <> <> <> <> <> <> <> <> <> <> <> <>
$$ <> <> <> <> <> <> <> <> <> <> <> <> <> <> <>
$$ ##$PreampModSN= (0..31)
$$ <00751> <00354> <00310> <> <> <> <> <> <> <> <> <> <> <> <> <> <> <> <>
$$ <> <> <> <> <> <> <> <> <> <> <> <> <>
$$ ##$ProdigyEth= <no>
$$ ##$ProdigyFw= <no>
$$ ##$ProdigyPn= <no>
$$ ##$ProdigySn= <no>
$$ ##$RFSVTY= <no>
$$ ##$RGTYPE= (0..31)
$$ 9 9 0 0 0 0 0 0 0 0 0 0 0 0 0 0 0 0 0 0 0 0 0 0 0 0 0 0 0 0 0 0
$$ ##$RG_max= (0..31)
$$ 101 101 -1 -1 -1 -1 -1 -1 -1 -1 -1 -1 -1 -1 -1 -1 -1 -1 -1 -1 -1 -1 -1
$$ -1 -1 -1 -1 -1 -1 -1 -1 -1
$$ ##$RG_min= (0..31)
$$ 0.25 0.25 -1 -1 -1 -1 -1 -1 -1 -1 -1 -1 -1 -1 -1 -1 -1 -1 -1 -1 -1 -1 -1
$$ -1 -1 -1 -1 -1 -1 -1 -1 -1
$$ ##$RG_tab1= (0..127)
$$ 0.25 0.28 0.32 0.35 0.4 0.44 0.5 0.56 0.64 0.7 0.8 0.89 1 1.12 1.28 1.4
$$ 1.6 1.78 2 2.25 2.56 2.8 3.2 3.56 4 4.5 5 5.6 6.35 7.12 8 9 10 11.3 12.7
$$ 14.2 16 18 20.2 22.6 25.4 28.5 32 36 40.3 45.2 50.8 57 64 71.8 80.6 90.5
$$ 101 -1 -1 -1 -1 -1 -1 -1 -1 -1 -1 -1 -1 -1 -1 -1 -1 -1 -1 -1 -1 -1 -1 -1
$$ -1 -1 -1 -1 -1 -1 -1 -1 -1 -1 -1 -1 -1 -1 -1 -1 -1 -1 -1 -1 -1 -1 -1 -1
$$ -1 -1 -1 -1 -1 -1 -1 -1 -1 -1 -1 -1 -1 -1 -1 -1 -1 -1 -1 -1 -1 -1 -1 -1
$$ -1 -1 -1 -1
$$ ##$RG_tab10= (0..127)
$$ -1 -1 -1 -1 -1 -1 -1 -1 -1 -1 -1 -1 -1 -1 -1 -1 -1 -1 -1 -1 -1 -1 -1 -1
$$ -1 -1 -1 -1 -1 -1 -1 -1 -1 -1 -1 -1 -1 -1 -1 -1 -1 -1 -1 -1 -1 -1 -1 -1
$$ -1 -1 -1 -1 -1 -1 -1 -1 -1 -1 -1 -1 -1 -1 -1 -1 -1 -1 -1 -1 -1 -1 -1 -1
$$ -1 -1 -1 -1 -1 -1 -1 -1 -1 -1 -1 -1 -1 -1 -1 -1 -1 -1 -1 -1 -1 -1 -1 -1
$$ -1 -1 -1 -1 -1 -1 -1 -1 -1 -1 -1 -1 -1 -1 -1 -1 -1 -1 -1 -1 -1 -1 -1 -1
$$ -1 -1 -1 -1 -1 -1 -1 -1
$$ ##$RG_tab11= (0..127)
$$ -1 -1 -1 -1 -1 -1 -1 -1 -1 -1 -1 -1 -1 -1 -1 -1 -1 -1 -1 -1 -1 -1 -1 -1
$$ -1 -1 -1 -1 -1 -1 -1 -1 -1 -1 -1 -1 -1 -1 -1 -1 -1 -1 -1 -1 -1 -1 -1 -1
$$ -1 -1 -1 -1 -1 -1 -1 -1 -1 -1 -1 -1 -1 -1 -1 -1 -1 -1 -1 -1 -1 -1 -1 -1
$$ -1 -1 -1 -1 -1 -1 -1 -1 -1 -1 -1 -1 -1 -1 -1 -1 -1 -1 -1 -1 -1 -1 -1 -1
$$ -1 -1 -1 -1 -1 -1 -1 -1 -1 -1 -1 -1 -1 -1 -1 -1 -1 -1 -1 -1 -1 -1 -1 -1
$$ -1 -1 -1 -1 -1 -1 -1 -1
$$ ##$RG_tab12= (0..127)
$$ -1 -1 -1 -1 -1 -1 -1 -1 -1 -1 -1 -1 -1 -1 -1 -1 -1 -1 -1 -1 -1 -1 -1 -1
$$ -1 -1 -1 -1 -1 -1 -1 -1 -1 -1 -1 -1 -1 -1 -1 -1 -1 -1 -1 -1 -1 -1 -1 -1
$$ -1 -1 -1 -1 -1 -1 -1 -1 -1 -1 -1 -1 -1 -1 -1 -1 -1 -1 -1 -1 -1 -1 -1 -1
$$ -1 -1 -1 -1 -1 -1 -1 -1 -1 -1 -1 -1 -1 -1 -1 -1 -1 -1 -1 -1 -1 -1 -1 -1
$$ -1 -1 -1 -1 -1 -1 -1 -1 -1 -1 -1 -1 -1 -1 -1 -1 -1 -1 -1 -1 -1 -1 -1 -1
$$ -1 -1 -1 -1 -1 -1 -1 -1
$$ ##$RG_tab13= (0..127)
$$ -1 -1 -1 -1 -1 -1 -1 -1 -1 -1 -1 -1 -1 -1 -1 -1 -1 -1 -1 -1 -1 -1 -1 -1
$$ -1 -1 -1 -1 -1 -1 -1 -1 -1 -1 -1 -1 -1 -1 -1 -1 -1 -1 -1 -1 -1 -1 -1 -1
$$ -1 -1 -1 -1 -1 -1 -1 -1 -1 -1 -1 -1 -1 -1 -1 -1 -1 -1 -1 -1 -1 -1 -1 -1
$$ -1 -1 -1 -1 -1 -1 -1 -1 -1 -1 -1 -1 -1 -1 -1 -1 -1 -1 -1 -1 -1 -1 -1 -1
$$ -1 -1 -1 -1 -1 -1 -1 -1 -1 -1 -1 -1 -1 -1 -1 -1 -1 -1 -1 -1 -1 -1 -1 -1
$$ -1 -1 -1 -1 -1 -1 -1 -1
$$ ##$RG_tab14= (0..127)
$$ -1 -1 -1 -1 -1 -1 -1 -1 -1 -1 -1 -1 -1 -1 -1 -1 -1 -1 -1 -1 -1 -1 -1 -1
$$ -1 -1 -1 -1 -1 -1 -1 -1 -1 -1 -1 -1 -1 -1 -1 -1 -1 -1 -1 -1 -1 -1 -1 -1
$$ -1 -1 -1 -1 -1 -1 -1 -1 -1 -1 -1 -1 -1 -1 -1 -1 -1 -1 -1 -1 -1 -1 -1 -1
$$ -1 -1 -1 -1 -1 -1 -1 -1 -1 -1 -1 -1 -1 -1 -1 -1 -1 -1 -1 -1 -1 -1 -1 -1
$$ -1 -1 -1 -1 -1 -1 -1 -1 -1 -1 -1 -1 -1 -1 -1 -1 -1 -1 -1 -1 -1 -1 -1 -1
$$ -1 -1 -1 -1 -1 -1 -1 -1
$$ ##$RG_tab15= (0..127)
$$ -1 -1 -1 -1 -1 -1 -1 -1 -1 -1 -1 -1 -1 -1 -1 -1 -1 -1 -1 -1 -1 -1 -1 -1
$$ -1 -1 -1 -1 -1 -1 -1 -1 -1 -1 -1 -1 -1 -1 -1 -1 -1 -1 -1 -1 -1 -1 -1 -1
$$ -1 -1 -1 -1 -1 -1 -1 -1 -1 -1 -1 -1 -1 -1 -1 -1 -1 -1 -1 -1 -1 -1 -1 -1
$$ -1 -1 -1 -1 -1 -1 -1 -1 -1 -1 -1 -1 -1 -1 -1 -1 -1 -1 -1 -1 -1 -1 -1 -1
$$ -1 -1 -1 -1 -1 -1 -1 -1 -1 -1 -1 -1 -1 -1 -1 -1 -1 -1 -1 -1 -1 -1 -1 -1
$$ -1 -1 -1 -1 -1 -1 -1 -1
$$ ##$RG_tab16= (0..127)
$$ -1 -1 -1 -1 -1 -1 -1 -1 -1 -1 -1 -1 -1 -1 -1 -1 -1 -1 -1 -1 -1 -1 -1 -1
$$ -1 -1 -1 -1 -1 -1 -1 -1 -1 -1 -1 -1 -1 -1 -1 -1 -1 -1 -1 -1 -1 -1 -1 -1
$$ -1 -1 -1 -1 -1 -1 -1 -1 -1 -1 -1 -1 -1 -1 -1 -1 -1 -1 -1 -1 -1 -1 -1 -1
$$ -1 -1 -1 -1 -1 -1 -1 -1 -1 -1 -1 -1 -1 -1 -1 -1 -1 -1 -1 -1 -1 -1 -1 -1
$$ -1 -1 -1 -1 -1 -1 -1 -1 -1 -1 -1 -1 -1 -1 -1 -1 -1 -1 -1 -1 -1 -1 -1 -1
$$ -1 -1 -1 -1 -1 -1 -1 -1
$$ ##$RG_tab17= (0..127)
$$ -1 -1 -1 -1 -1 -1 -1 -1 -1 -1 -1 -1 -1 -1 -1 -1 -1 -1 -1 -1 -1 -1 -1 -1
$$ -1 -1 -1 -1 -1 -1 -1 -1 -1 -1 -1 -1 -1 -1 -1 -1 -1 -1 -1 -1 -1 -1 -1 -1
$$ -1 -1 -1 -1 -1 -1 -1 -1 -1 -1 -1 -1 -1 -1 -1 -1 -1 -1 -1 -1 -1 -1 -1 -1
$$ -1 -1 -1 -1 -1 -1 -1 -1 -1 -1 -1 -1 -1 -1 -1 -1 -1 -1 -1 -1 -1 -1 -1 -1
$$ -1 -1 -1 -1 -1 -1 -1 -1 -1 -1 -1 -1 -1 -1 -1 -1 -1 -1 -1 -1 -1 -1 -1 -1
$$ -1 -1 -1 -1 -1 -1 -1 -1
$$ ##$RG_tab18= (0..127)
$$ -1 -1 -1 -1 -1 -1 -1 -1 -1 -1 -1 -1 -1 -1 -1 -1 -1 -1 -1 -1 -1 -1 -1 -1
$$ -1 -1 -1 -1 -1 -1 -1 -1 -1 -1 -1 -1 -1 -1 -1 -1 -1 -1 -1 -1 -1 -1 -1 -1
$$ -1 -1 -1 -1 -1 -1 -1 -1 -1 -1 -1 -1 -1 -1 -1 -1 -1 -1 -1 -1 -1 -1 -1 -1
$$ -1 -1 -1 -1 -1 -1 -1 -1 -1 -1 -1 -1 -1 -1 -1 -1 -1 -1 -1 -1 -1 -1 -1 -1
$$ -1 -1 -1 -1 -1 -1 -1 -1 -1 -1 -1 -1 -1 -1 -1 -1 -1 -1 -1 -1 -1 -1 -1 -1
$$ -1 -1 -1 -1 -1 -1 -1 -1
$$ ##$RG_tab19= (0..127)
$$ -1 -1 -1 -1 -1 -1 -1 -1 -1 -1 -1 -1 -1 -1 -1 -1 -1 -1 -1 -1 -1 -1 -1 -1
$$ -1 -1 -1 -1 -1 -1 -1 -1 -1 -1 -1 -1 -1 -1 -1 -1 -1 -1 -1 -1 -1 -1 -1 -1
$$ -1 -1 -1 -1 -1 -1 -1 -1 -1 -1 -1 -1 -1 -1 -1 -1 -1 -1 -1 -1 -1 -1 -1 -1
$$ -1 -1 -1 -1 -1 -1 -1 -1 -1 -1 -1 -1 -1 -1 -1 -1 -1 -1 -1 -1 -1 -1 -1 -1
$$ -1 -1 -1 -1 -1 -1 -1 -1 -1 -1 -1 -1 -1 -1 -1 -1 -1 -1 -1 -1 -1 -1 -1 -1
$$ -1 -1 -1 -1 -1 -1 -1 -1
$$ ##$RG_tab2= (0..127)
$$ 0.25 0.28 0.32 0.35 0.4 0.44 0.5 0.56 0.64 0.7 0.8 0.89 1 1.12 1.28 1.4
$$ 1.6 1.78 2 2.25 2.56 2.8 3.2 3.56 4 4.5 5 5.6 6.35 7.12 8 9 10 11.3 12.7
$$ 14.2 16 18 20.2 22.6 25.4 28.5 32 36 40.3 45.2 50.8 57 64 71.8 80.6 90.5
$$ 101 -1 -1 -1 -1 -1 -1 -1 -1 -1 -1 -1 -1 -1 -1 -1 -1 -1 -1 -1 -1 -1 -1 -1
$$ -1 -1 -1 -1 -1 -1 -1 -1 -1 -1 -1 -1 -1 -1 -1 -1 -1 -1 -1 -1 -1 -1 -1 -1
$$ -1 -1 -1 -1 -1 -1 -1 -1 -1 -1 -1 -1 -1 -1 -1 -1 -1 -1 -1 -1 -1 -1 -1 -1
$$ -1 -1 -1 -1
$$ ##$RG_tab20= (0..127)
$$ -1 -1 -1 -1 -1 -1 -1 -1 -1 -1 -1 -1 -1 -1 -1 -1 -1 -1 -1 -1 -1 -1 -1 -1
$$ -1 -1 -1 -1 -1 -1 -1 -1 -1 -1 -1 -1 -1 -1 -1 -1 -1 -1 -1 -1 -1 -1 -1 -1
$$ -1 -1 -1 -1 -1 -1 -1 -1 -1 -1 -1 -1 -1 -1 -1 -1 -1 -1 -1 -1 -1 -1 -1 -1
$$ -1 -1 -1 -1 -1 -1 -1 -1 -1 -1 -1 -1 -1 -1 -1 -1 -1 -1 -1 -1 -1 -1 -1 -1
$$ -1 -1 -1 -1 -1 -1 -1 -1 -1 -1 -1 -1 -1 -1 -1 -1 -1 -1 -1 -1 -1 -1 -1 -1
$$ -1 -1 -1 -1 -1 -1 -1 -1
$$ ##$RG_tab21= (0..127)
$$ -1 -1 -1 -1 -1 -1 -1 -1 -1 -1 -1 -1 -1 -1 -1 -1 -1 -1 -1 -1 -1 -1 -1 -1
$$ -1 -1 -1 -1 -1 -1 -1 -1 -1 -1 -1 -1 -1 -1 -1 -1 -1 -1 -1 -1 -1 -1 -1 -1
$$ -1 -1 -1 -1 -1 -1 -1 -1 -1 -1 -1 -1 -1 -1 -1 -1 -1 -1 -1 -1 -1 -1 -1 -1
$$ -1 -1 -1 -1 -1 -1 -1 -1 -1 -1 -1 -1 -1 -1 -1 -1 -1 -1 -1 -1 -1 -1 -1 -1
$$ -1 -1 -1 -1 -1 -1 -1 -1 -1 -1 -1 -1 -1 -1 -1 -1 -1 -1 -1 -1 -1 -1 -1 -1
$$ -1 -1 -1 -1 -1 -1 -1 -1
$$ ##$RG_tab22= (0..127)
$$ -1 -1 -1 -1 -1 -1 -1 -1 -1 -1 -1 -1 -1 -1 -1 -1 -1 -1 -1 -1 -1 -1 -1 -1
$$ -1 -1 -1 -1 -1 -1 -1 -1 -1 -1 -1 -1 -1 -1 -1 -1 -1 -1 -1 -1 -1 -1 -1 -1
$$ -1 -1 -1 -1 -1 -1 -1 -1 -1 -1 -1 -1 -1 -1 -1 -1 -1 -1 -1 -1 -1 -1 -1 -1
$$ -1 -1 -1 -1 -1 -1 -1 -1 -1 -1 -1 -1 -1 -1 -1 -1 -1 -1 -1 -1 -1 -1 -1 -1
$$ -1 -1 -1 -1 -1 -1 -1 -1 -1 -1 -1 -1 -1 -1 -1 -1 -1 -1 -1 -1 -1 -1 -1 -1
$$ -1 -1 -1 -1 -1 -1 -1 -1
$$ ##$RG_tab23= (0..127)
$$ -1 -1 -1 -1 -1 -1 -1 -1 -1 -1 -1 -1 -1 -1 -1 -1 -1 -1 -1 -1 -1 -1 -1 -1
$$ -1 -1 -1 -1 -1 -1 -1 -1 -1 -1 -1 -1 -1 -1 -1 -1 -1 -1 -1 -1 -1 -1 -1 -1
$$ -1 -1 -1 -1 -1 -1 -1 -1 -1 -1 -1 -1 -1 -1 -1 -1 -1 -1 -1 -1 -1 -1 -1 -1
$$ -1 -1 -1 -1 -1 -1 -1 -1 -1 -1 -1 -1 -1 -1 -1 -1 -1 -1 -1 -1 -1 -1 -1 -1
$$ -1 -1 -1 -1 -1 -1 -1 -1 -1 -1 -1 -1 -1 -1 -1 -1 -1 -1 -1 -1 -1 -1 -1 -1
$$ -1 -1 -1 -1 -1 -1 -1 -1
$$ ##$RG_tab24= (0..127)
$$ -1 -1 -1 -1 -1 -1 -1 -1 -1 -1 -1 -1 -1 -1 -1 -1 -1 -1 -1 -1 -1 -1 -1 -1
$$ -1 -1 -1 -1 -1 -1 -1 -1 -1 -1 -1 -1 -1 -1 -1 -1 -1 -1 -1 -1 -1 -1 -1 -1
$$ -1 -1 -1 -1 -1 -1 -1 -1 -1 -1 -1 -1 -1 -1 -1 -1 -1 -1 -1 -1 -1 -1 -1 -1
$$ -1 -1 -1 -1 -1 -1 -1 -1 -1 -1 -1 -1 -1 -1 -1 -1 -1 -1 -1 -1 -1 -1 -1 -1
$$ -1 -1 -1 -1 -1 -1 -1 -1 -1 -1 -1 -1 -1 -1 -1 -1 -1 -1 -1 -1 -1 -1 -1 -1
$$ -1 -1 -1 -1 -1 -1 -1 -1
$$ ##$RG_tab3= (0..127)
$$ -1 -1 -1 -1 -1 -1 -1 -1 -1 -1 -1 -1 -1 -1 -1 -1 -1 -1 -1 -1 -1 -1 -1 -1
$$ -1 -1 -1 -1 -1 -1 -1 -1 -1 -1 -1 -1 -1 -1 -1 -1 -1 -1 -1 -1 -1 -1 -1 -1
$$ -1 -1 -1 -1 -1 -1 -1 -1 -1 -1 -1 -1 -1 -1 -1 -1 -1 -1 -1 -1 -1 -1 -1 -1
$$ -1 -1 -1 -1 -1 -1 -1 -1 -1 -1 -1 -1 -1 -1 -1 -1 -1 -1 -1 -1 -1 -1 -1 -1
$$ -1 -1 -1 -1 -1 -1 -1 -1 -1 -1 -1 -1 -1 -1 -1 -1 -1 -1 -1 -1 -1 -1 -1 -1
$$ -1 -1 -1 -1 -1 -1 -1 -1
$$ ##$RG_tab4= (0..127)
$$ -1 -1 -1 -1 -1 -1 -1 -1 -1 -1 -1 -1 -1 -1 -1 -1 -1 -1 -1 -1 -1 -1 -1 -1
$$ -1 -1 -1 -1 -1 -1 -1 -1 -1 -1 -1 -1 -1 -1 -1 -1 -1 -1 -1 -1 -1 -1 -1 -1
$$ -1 -1 -1 -1 -1 -1 -1 -1 -1 -1 -1 -1 -1 -1 -1 -1 -1 -1 -1 -1 -1 -1 -1 -1
$$ -1 -1 -1 -1 -1 -1 -1 -1 -1 -1 -1 -1 -1 -1 -1 -1 -1 -1 -1 -1 -1 -1 -1 -1
$$ -1 -1 -1 -1 -1 -1 -1 -1 -1 -1 -1 -1 -1 -1 -1 -1 -1 -1 -1 -1 -1 -1 -1 -1
$$ -1 -1 -1 -1 -1 -1 -1 -1
$$ ##$RG_tab5= (0..127)
$$ -1 -1 -1 -1 -1 -1 -1 -1 -1 -1 -1 -1 -1 -1 -1 -1 -1 -1 -1 -1 -1 -1 -1 -1
$$ -1 -1 -1 -1 -1 -1 -1 -1 -1 -1 -1 -1 -1 -1 -1 -1 -1 -1 -1 -1 -1 -1 -1 -1
$$ -1 -1 -1 -1 -1 -1 -1 -1 -1 -1 -1 -1 -1 -1 -1 -1 -1 -1 -1 -1 -1 -1 -1 -1
$$ -1 -1 -1 -1 -1 -1 -1 -1 -1 -1 -1 -1 -1 -1 -1 -1 -1 -1 -1 -1 -1 -1 -1 -1
$$ -1 -1 -1 -1 -1 -1 -1 -1 -1 -1 -1 -1 -1 -1 -1 -1 -1 -1 -1 -1 -1 -1 -1 -1
$$ -1 -1 -1 -1 -1 -1 -1 -1
$$ ##$RG_tab6= (0..127)
$$ -1 -1 -1 -1 -1 -1 -1 -1 -1 -1 -1 -1 -1 -1 -1 -1 -1 -1 -1 -1 -1 -1 -1 -1
$$ -1 -1 -1 -1 -1 -1 -1 -1 -1 -1 -1 -1 -1 -1 -1 -1 -1 -1 -1 -1 -1 -1 -1 -1
$$ -1 -1 -1 -1 -1 -1 -1 -1 -1 -1 -1 -1 -1 -1 -1 -1 -1 -1 -1 -1 -1 -1 -1 -1
$$ -1 -1 -1 -1 -1 -1 -1 -1 -1 -1 -1 -1 -1 -1 -1 -1 -1 -1 -1 -1 -1 -1 -1 -1
$$ -1 -1 -1 -1 -1 -1 -1 -1 -1 -1 -1 -1 -1 -1 -1 -1 -1 -1 -1 -1 -1 -1 -1 -1
$$ -1 -1 -1 -1 -1 -1 -1 -1
$$ ##$RG_tab7= (0..127)
$$ -1 -1 -1 -1 -1 -1 -1 -1 -1 -1 -1 -1 -1 -1 -1 -1 -1 -1 -1 -1 -1 -1 -1 -1
$$ -1 -1 -1 -1 -1 -1 -1 -1 -1 -1 -1 -1 -1 -1 -1 -1 -1 -1 -1 -1 -1 -1 -1 -1
$$ -1 -1 -1 -1 -1 -1 -1 -1 -1 -1 -1 -1 -1 -1 -1 -1 -1 -1 -1 -1 -1 -1 -1 -1
$$ -1 -1 -1 -1 -1 -1 -1 -1 -1 -1 -1 -1 -1 -1 -1 -1 -1 -1 -1 -1 -1 -1 -1 -1
$$ -1 -1 -1 -1 -1 -1 -1 -1 -1 -1 -1 -1 -1 -1 -1 -1 -1 -1 -1 -1 -1 -1 -1 -1
$$ -1 -1 -1 -1 -1 -1 -1 -1
$$ ##$RG_tab8= (0..127)
$$ -1 -1 -1 -1 -1 -1 -1 -1 -1 -1 -1 -1 -1 -1 -1 -1 -1 -1 -1 -1 -1 -1 -1 -1
$$ -1 -1 -1 -1 -1 -1 -1 -1 -1 -1 -1 -1 -1 -1 -1 -1 -1 -1 -1 -1 -1 -1 -1 -1
$$ -1 -1 -1 -1 -1 -1 -1 -1 -1 -1 -1 -1 -1 -1 -1 -1 -1 -1 -1 -1 -1 -1 -1 -1
$$ -1 -1 -1 -1 -1 -1 -1 -1 -1 -1 -1 -1 -1 -1 -1 -1 -1 -1 -1 -1 -1 -1 -1 -1
$$ -1 -1 -1 -1 -1 -1 -1 -1 -1 -1 -1 -1 -1 -1 -1 -1 -1 -1 -1 -1 -1 -1 -1 -1
$$ -1 -1 -1 -1 -1 -1 -1 -1
$$ ##$RG_tab9= (0..127)
$$ -1 -1 -1 -1 -1 -1 -1 -1 -1 -1 -1 -1 -1 -1 -1 -1 -1 -1 -1 -1 -1 -1 -1 -1
$$ -1 -1 -1 -1 -1 -1 -1 -1 -1 -1 -1 -1 -1 -1 -1 -1 -1 -1 -1 -1 -1 -1 -1 -1
$$ -1 -1 -1 -1 -1 -1 -1 -1 -1 -1 -1 -1 -1 -1 -1 -1 -1 -1 -1 -1 -1 -1 -1 -1
$$ -1 -1 -1 -1 -1 -1 -1 -1 -1 -1 -1 -1 -1 -1 -1 -1 -1 -1 -1 -1 -1 -1 -1 -1
$$ -1 -1 -1 -1 -1 -1 -1 -1 -1 -1 -1 -1 -1 -1 -1 -1 -1 -1 -1 -1 -1 -1 -1 -1
$$ -1 -1 -1 -1 -1 -1 -1 -1
$$ ##$ROBOTTY= <no>
$$ ##$ROUT14= (0..7)
$$ 0 0 0 0 0 0 0 0
$$ ##$ROUTER= 0
$$ ##$RXFMAX= (0..23)
$$ 1290 1290 -1 -1 -1 -1 -1 -1 -1 -1 -1 -1 -1 -1 -1 -1 -1 -1 -1 -1 -1 -1 -1
$$ -1
$$ ##$RXFMIN= (0..23)
$$ 5 5 -1 -1 -1 -1 -1 -1 -1 -1 -1 -1 -1 -1 -1 -1 -1 -1 -1 -1 -1 -1 -1 -1
$$ ##$RheoNmrEth= <no>
$$ ##$SGUC1= (0..23)
$$ 18 17 0 0 0 0 0 0 0 0 0 0 0 0 0 0 0 0 0 0 0 0 0 0
$$ ##$SGUC2= (0..23)
$$ 33 0 0 0 0 0 0 0 0 0 0 0 0 0 0 0 0 0 0 0 0 0 0 0
$$ ##$SLCBCONF= <SHNV>
$$ ##$SPECTR= 13
$$ ##$SYNCTRIG= 0
$$ ##$SamChgEth= (0..3)
$$ <192.168.98.2> <no> <no> <no>
$$ ##$SamChgPort= (0..3)
$$ <80> <no> <no> <no>
$$ ##$SamChgProtocol= (0..3)
$$ <SOAP> <> <> <>
$$ ##$ServiceNo= <>
$$ ##$Sgu10PowerLevel= (0..7)
$$ 0 0 0 0 0 0 0 0
$$ ##$Sgu11PowerLevel= (0..7)
$$ 0 0 0 0 0 0 0 0
$$ ##$Sgu12PowerLevel= (0..7)
$$ 0 0 0 0 0 0 0 0
$$ ##$Sgu13PowerLevel= (0..7)
$$ 0 0 0 0 0 0 0 0
$$ ##$Sgu14PowerLevel= (0..7)
$$ 0 0 0 0 0 0 0 0
$$ ##$Sgu15PowerLevel= (0..7)
$$ 0 0 0 0 0 0 0 0
$$ ##$Sgu16PowerLevel= (0..7)
$$ 0 0 0 0 0 0 0 0
$$ ##$Sgu17PowerLevel= (0..7)
$$ 0 0 0 0 0 0 0 0
$$ ##$Sgu18PowerLevel= (0..7)
$$ 0 0 0 0 0 0 0 0
$$ ##$Sgu19PowerLevel= (0..7)
$$ 0 0 0 0 0 0 0 0
$$ ##$Sgu1PowerLevels= (0..7)
$$ 90 74 58 42 26 10 0 0
$$ ##$Sgu20PowerLevel= (0..7)
$$ 0 0 0 0 0 0 0 0
$$ ##$Sgu21PowerLevel= (0..7)
$$ 0 0 0 0 0 0 0 0
$$ ##$Sgu22PowerLevel= (0..7)
$$ 0 0 0 0 0 0 0 0
$$ ##$Sgu23PowerLevel= (0..7)
$$ 0 0 0 0 0 0 0 0
$$ ##$Sgu24PowerLevel= (0..7)
$$ 0 0 0 0 0 0 0 0
$$ ##$Sgu2PowerLevels= (0..7)
$$ 90 74 58 42 26 10 0 0
$$ ##$Sgu3PowerLevels= (0..7)
$$ 0 0 0 0 0 0 0 0
$$ ##$Sgu4PowerLevels= (0..7)
$$ 0 0 0 0 0 0 0 0
$$ ##$Sgu5PowerLevels= (0..7)
$$ 0 0 0 0 0 0 0 0
$$ ##$Sgu6PowerLevels= (0..7)
$$ 0 0 0 0 0 0 0 0
$$ ##$Sgu7PowerLevels= (0..7)
$$ 0 0 0 0 0 0 0 0
$$ ##$Sgu8PowerLevels= (0..7)
$$ 0 0 0 0 0 0 0 0
$$ ##$Sgu9PowerLevels= (0..7)
$$ 0 0 0 0 0 0 0 0
$$ ##$SguType= 4
$$ ##$ShimMaxVal= 247148
$$ ##$ShimPow1Ch2Sh= (0..38)
$$ 1 2 3 4 13 5 7 11 10 9 6 8 12 23 21 15 20 14 16 17 0 0 0 0 0 0 0 0 0 0
$$ 0 0 0 0 0 0 0 0 0
$$ ##$ShimPow1Imax= (0..38)
$$ 1 1 1 1 1 1 1 1 1 1 1 1 1 1 1 1 1 1 1 1 0 0 0 0 0 0 0 0 0 0 0 0 0 0 0 0
$$ 0 0 0
$$ ##$ShimPow1NChan= 20
$$ ##$ShimPow1TotIMax= 6
$$ ##$ShimPow1Vmax= (0..38)
$$ 20 20 20 20 20 20 20 20 20 20 20 20 20 20 20 20 20 20 20 20 0 0 0 0 0 0
$$ 0 0 0 0 0 0 0 0 0 0 0 0 0
$$ ##$ShimPow2Ch2Sh= (0..38)
$$ 0 0 0 0 0 0 0 0 0 0 0 0 0 0 0 0 0 0 0 0 0 0 0 0 0 0 0 0 0 0 0 0 0 0 0 0
$$ 0 0 0
$$ ##$ShimPow2Imax= (0..38)
$$ 0 0 0 0 0 0 0 0 0 0 0 0 0 0 0 0 0 0 0 0 0 0 0 0 0 0 0 0 0 0 0 0 0 0 0 0
$$ 0 0 0
$$ ##$ShimPow2NChan= 0
$$ ##$ShimPow2TotIMax= 0
$$ ##$ShimPow2Vmax= (0..38)
$$ 0 0 0 0 0 0 0 0 0 0 0 0 0 0 0 0 0 0 0 0 0 0 0 0 0 0 0 0 0 0 0 0 0 0 0 0
$$ 0 0 0
$$ ##$ShimPow3Ch2Sh= (0..38)
$$ 0 0 0 0 0 0 0 0 0 0 0 0 0 0 0 0 0 0 0 0 0 0 0 0 0 0 0 0 0 0 0 0 0 0 0 0
$$ 0 0 0
$$ ##$ShimPow3Imax= (0..38)
$$ 0 0 0 0 0 0 0 0 0 0 0 0 0 0 0 0 0 0 0 0 0 0 0 0 0 0 0 0 0 0 0 0 0 0 0 0
$$ 0 0 0
$$ ##$ShimPow3NChan= 0
$$ ##$ShimPow3TotIMax= 0
$$ ##$ShimPow3Vmax= (0..38)
$$ 0 0 0 0 0 0 0 0 0 0 0 0 0 0 0 0 0 0 0 0 0 0 0 0 0 0 0 0 0 0 0 0 0 0 0 0
$$ 0 0 0
$$ ##$ShimPow4Ch2Sh= (0..38)
$$ 0 0 0 0 0 0 0 0 0 0 0 0 0 0 0 0 0 0 0 0 0 0 0 0 0 0 0 0 0 0 0 0 0 0 0 0
$$ 0 0 0
$$ ##$ShimPow4Imax= (0..38)
$$ 0 0 0 0 0 0 0 0 0 0 0 0 0 0 0 0 0 0 0 0 0 0 0 0 0 0 0 0 0 0 0 0 0 0 0 0
$$ 0 0 0
$$ ##$ShimPow4NChan= 0
$$ ##$ShimPow4TotIMax= 0
$$ ##$ShimPow4Vmax= (0..38)
$$ 0 0 0 0 0 0 0 0 0 0 0 0 0 0 0 0 0 0 0 0 0 0 0 0 0 0 0 0 0 0 0 0 0 0 0 0
$$ 0 0 0
$$ ##$ShimPow5Ch2Sh= (0..38)
$$ 0 0 0 0 0 0 0 0 0 0 0 0 0 0 0 0 0 0 0 0 0 0 0 0 0 0 0 0 0 0 0 0 0 0 0 0
$$ 0 0 0
$$ ##$ShimPow5Imax= (0..38)
$$ 0 0 0 0 0 0 0 0 0 0 0 0 0 0 0 0 0 0 0 0 0 0 0 0 0 0 0 0 0 0 0 0 0 0 0 0
$$ 0 0 0
$$ ##$ShimPow5NChan= 0
$$ ##$ShimPow5TotIMax= 0
$$ ##$ShimPow5Vmax= (0..38)
$$ 0 0 0 0 0 0 0 0 0 0 0 0 0 0 0 0 0 0 0 0 0 0 0 0 0 0 0 0 0 0 0 0 0 0 0 0
$$ 0 0 0
$$ ##$ShimPow6Ch2Sh= (0..38)
$$ 0 0 0 0 0 0 0 0 0 0 0 0 0 0 0 0 0 0 0 0 0 0 0 0 0 0 0 0 0 0 0 0 0 0 0 0
$$ 0 0 0
$$ ##$ShimPow6Imax= (0..38)
$$ 0 0 0 0 0 0 0 0 0 0 0 0 0 0 0 0 0 0 0 0 0 0 0 0 0 0 0 0 0 0 0 0 0 0 0 0
$$ 0 0 0
$$ ##$ShimPow6NChan= 0
$$ ##$ShimPow6TotIMax= 0
$$ ##$ShimPow6Vmax= (0..38)
$$ 0 0 0 0 0 0 0 0 0 0 0 0 0 0 0 0 0 0 0 0 0 0 0 0 0 0 0 0 0 0 0 0 0 0 0 0
$$ 0 0 0
$$ ##$ShimPow7Ch2Sh= (0..38)
$$ 0 0 0 0 0 0 0 0 0 0 0 0 0 0 0 0 0 0 0 0 0 0 0 0 0 0 0 0 0 0 0 0 0 0 0 0
$$ 0 0 0
$$ ##$ShimPow7Imax= (0..38)
$$ 0 0 0 0 0 0 0 0 0 0 0 0 0 0 0 0 0 0 0 0 0 0 0 0 0 0 0 0 0 0 0 0 0 0 0 0
$$ 0 0 0
$$ ##$ShimPow7NChan= 0
$$ ##$ShimPow7TotIMax= 0
$$ ##$ShimPow7Vmax= (0..38)
$$ 0 0 0 0 0 0 0 0 0 0 0 0 0 0 0 0 0 0 0 0 0 0 0 0 0 0 0 0 0 0 0 0 0 0 0 0
$$ 0 0 0
$$ ##$ShimPow8Ch2Sh= (0..38)
$$ 0 0 0 0 0 0 0 0 0 0 0 0 0 0 0 0 0 0 0 0 0 0 0 0 0 0 0 0 0 0 0 0 0 0 0 0
$$ 0 0 0
$$ ##$ShimPow8Imax= (0..38)
$$ 0 0 0 0 0 0 0 0 0 0 0 0 0 0 0 0 0 0 0 0 0 0 0 0 0 0 0 0 0 0 0 0 0 0 0 0
$$ 0 0 0
$$ ##$ShimPow8NChan= 0
$$ ##$ShimPow8TotIMax= 0
$$ ##$ShimPow8Vmax= (0..38)
$$ 0 0 0 0 0 0 0 0 0 0 0 0 0 0 0 0 0 0 0 0 0 0 0 0 0 0 0 0 0 0 0 0 0 0 0 0
$$ 0 0 0
$$ ##$ShimPowMaxUA= (0..63)
$$ 130000 130000 130000 130000 130000 130000 130000 130000 130000 130000 130000
$$ 130000 130000 130000 130000 130000 130000 130000 130000 130000 0 0 0 0
$$ 0 0 0 0 0 0 0 0 0 0 0 0 0 0 0 0 0 0 0 0 0 0 0 0 0 0 0 0 0 0 0 0 0 0 0 0
$$ 0 0 0 0
$$ ##$ShimPowMaxUG= (0..63)
$$ 524287 524287 524287 524287 524287 524287 524287 524287 524287 524287 524287
$$ 524287 524287 524287 524287 524287 524287 524287 524287 524287 0 0 0 0
$$ 0 0 0 0 0 0 0 0 0 0 0 0 0 0 0 0 0 0 0 0 0 0 0 0 0 0 0 0 0 0 0 0 0 0 0 0
$$ 0 0 0 0
$$ ##$ShimPowNum= 1
$$ ##$ShimPowRcbType= 3
$$ ##$ShimPowRes= (0..63)
$$ 1e-20 1e-20 1e-20 1e-20 1e-20 1e-20 1e-20 1e-20 1e-20 1e-20 1e-20 1e-20
$$ 1e-20 1e-20 1e-20 1e-20 1e-20 1e-20 1e-20 1e-20 0 0 0 0 0 0 0 0 0 0 0 0
$$ 0 0 0 0 0 0 0 0 0 0 0 0 0 0 0 0 0 0 0 0 0 0 0 0 0 0 0 0 0 0 0 0
$$ ##$ShimPowRng0= (0..63)
$$ 1 1 1 1 1 1 1 1 1 1 1 1 1 1 1 1 1 1 1 1 0 0 0 0 0 0 0 0 0 0 0 0 0 0 0 0
$$ 0 0 0 0 0 0 0 0 0 0 0 0 0 0 0 0 0 0 0 0 0 0 0 0 0 0 0 0
$$ ##$ShimPowRng1= (0..63)
$$ 1 1 1 1 1 1 1 1 1 1 1 1 1 1 1 1 1 1 1 1 0 0 0 0 0 0 0 0 0 0 0 0 0 0 0 0
$$ 0 0 0 0 0 0 0 0 0 0 0 0 0 0 0 0 0 0 0 0 0 0 0 0 0 0 0 0
$$ ##$ShimPowRng2= (0..63)
$$ 1 1 1 1 1 1 1 1 1 1 1 1 1 1 1 1 1 1 1 1 0 0 0 0 0 0 0 0 0 0 0 0 0 0 0 0
$$ 0 0 0 0 0 0 0 0 0 0 0 0 0 0 0 0 0 0 0 0 0 0 0 0 0 0 0 0
$$ ##$ShimPowRng3= (0..63)
$$ 1 1 1 1 1 1 1 1 1 1 1 1 1 1 1 1 1 1 1 1 0 0 0 0 0 0 0 0 0 0 0 0 0 0 0 0
$$ 0 0 0 0 0 0 0 0 0 0 0 0 0 0 0 0 0 0 0 0 0 0 0 0 0 0 0 0
$$ ##$ShimPowType1= 8
$$ ##$ShimPowType2= 0
$$ ##$ShimPowType3= 0
$$ ##$ShimPowType4= 0
$$ ##$ShimPowType5= 0
$$ ##$ShimPowType6= 0
$$ ##$ShimPowType7= 0
$$ ##$ShimPowType8= 0
$$ ##$ShimSysActGrad= (0..63)
$$ 1 2 3 4 13 5 7 11 10 9 6 8 12 20 21 15 23 14 16 17 0 0 0 0 0 0 0 0 0 0
$$ 0 0 0 0 0 0 0 0 0 0 0 0 0 0 0 0 0 0 0 0 0 0 0 0 0 0 0 0 0 0 0 0 0 0
$$ ##$ShimSysAngle= <>
$$ ##$ShimSysFunc= (0..63)
$$ 1 2 3 4 5 7 9 11 15 16 8 10 12 14 6 17 13 18 19 20 0 0 0 0 0 0 0 0 0 0
$$ 0 0 0 0 0 0 0 0 0 0 0 0 0 0 0 0 0 0 0 0 0 0 0 0 0 0 0 0 0 0 0 0 0 0
$$ ##$ShimSysMatId= <BOSS1>
$$ ##$ShimSysMatrix= 1
$$ ##$ShimSysMinMaxUG= 247148
$$ ##$ShimSysOffset= <771 (SHIM UPPER PART!!!)>
$$ ##$ShimSysType= 1
$$ ##$ShimUnit= 3
$$ ##$SpectrOsVersion= <4.1.166.20220113>
$$ ##$TCubeEth= <192.168.180.38>
$$ ##$TCubeSeqDevice= <>
$$ ##$TOSITY= <no>
$$ ##$TRIPLO2= 0
$$ ##$TopSpinVersion= <TopSpin 4.1.4>
$$ ##$TrxFreqFormula= (0..23)
$$ <TrxFreqFormula(2.0,400130000.000000,'TRX',Trx(1.0,'TRX 1200.1',1,5.000000,1290.000000))>
$$ <TrxFreqFormula(2.0,400130000.000000,'TRX',Trx(1.0,'TRX 1200.2',1,5.000000,1290.000000))>
$$ <> <> <> <> <> <> <> <> <> <> <> <> <> <> <> <> <> <> <> <> <> <>
$$ ##$TrxPN= (0..23)
$$ <Z148391> <Z148391> <> <> <> <> <> <> <> <> <> <> <> <> <> <> <> <> <>
$$ <> <> <> <> <>
$$ ##$TrxSN= (0..23)
$$ <00763> <00728> <> <> <> <> <> <> <> <> <> <> <> <> <> <> <> <> <> <> <>
$$ <> <> <>
$$ ##$VCubeEth= (0..23)
$$ <no> <no> <no> <no> <no> <no> <no> <no> <no> <no> <no> <no> <no> <no> <no>
$$ <no> <no> <no> <no> <no> <no> <no> <no> <no>
$$ ##$VTU= 2
$$ ##$VTUETH= <192.168.99.11>
$$ ##$VTUTY= <no>
$$ ##$ValueLine= no
$$ ##$VpuPN= (0..23)
$$ <no> <no> <no> <no> <no> <no> <no> <no> <no> <no> <no> <no> <no> <no> <no>
$$ <no> <no> <no> <no> <no> <no> <no> <no> <no>
$$ ##$VpuSN= (0..23)
$$ <no> <no> <no> <no> <no> <no> <no> <no> <no> <no> <no> <no> <no> <no> <no>
$$ <no> <no> <no> <no> <no> <no> <no> <no> <no>
$$ ##$WBREFAM= (0..31)
$$ 100 100 100 100 100 100 100 100 100 100 100 100 100 100 100 100 100 100
$$ 100 100 100 100 100 100 100 100 100 100 100 100 100 100
$$ ##$WBREFLM= (0..31)
$$ 1 0 0 0 0 0 0 0 0 0 0 0 0 0 0 0 0 0 0 0 0 0 0 0 0 0 0 0 0 0 0 0
$$ ##$WBREFPH= (0..31)
$$ -0.07 0 0 0 0 0 0 0 0 0 0 0 0 0 0 0 0 0 0 0 0 0 0 0 0 0 0 0 0 0 0 0
$$ ##$WBSGU= (0..31)
$$ 1 1 2 0 0 0 0 0 0 0 0 0 0 0 0 0 0 0 0 0 0 0 0 0 0 0 0 0 0 0 0 0
$$ ##END=
##$RELAX= 
##$BRUKER FILE PROC=clevels
$$ ##TITLE= Parameter file, TopSpin 4.1.4
$$ ##JCAMPDX= 5.0
$$ ##DATATYPE= Parameter Values
$$ ##NPOINTS= 1	$$ modification sequence number
$$ ##ORIGIN= Bruker BioSpin GmbH
$$ ##OWNER= nmrsu
$$ $$ 2023-07-09 00:40:04.678 +0200  nmrsu@nmrf492r
$$ $$ /opt/data/apprentis.isic@epfl.ch/nmr/8d93b60875bb_reference_108-24-7/6/pdata/1/clevels
$$ $$ process /opt/topspin4.1.4/prog/mod/xwish3
$$ ##$LEVELS= (0..255)
$$ 114.44 -114.44 131.45 -131.45 150.99 -150.99 173.43 -173.43 199.21 -199.21
$$ 228.83 -228.83 262.84 -262.84 301.91 -301.91 346.79 -346.79 398.35 -398.35
$$ 457.56 -457.56 525.58 -525.58 603.7 -603.7 693.44 -693.44 796.52 -796.52
$$ 914.92 -914.92 1050.93 -1050.93 1207.15 -1207.15 1386.59 -1386.59 1592.7
$$ -1592.7 0 0 0 0 0 0 0 0 0 0 0 0 0 0 0 0 0 0 0 0 0 0 0 0 0 0 0 0 0 0 0 0
$$ 0 0 0 0 0 0 0 0 0 0 0 0 0 0 0 0 0 0 0 0 0 0 0 0 0 0 0 0 0 0 0 0 0 0 0 0
$$ 0 0 0 0 0 0 0 0 0 0 0 0 0 0 0 0 0 0 0 0 0 0 0 0 0 0 0 0 0 0 0 0 0 0 0 0
$$ 0 0 0 0 0 0 0 0 0 0 0 0 0 0 0 0 0 0 0 0 0 0 0 0 0 0 0 0 0 0 0 0 0 0 0 0
$$ 0 0 0 0 0 0 0 0 0 0 0 0 0 0 0 0 0 0 0 0 0 0 0 0 0 0 0 0 0 0 0 0 0 0 0 0
$$ 0 0 0 0 0 0 0 0 0 0 0 0 0 0 0 0 0 0 0 0 0 0 0 0 0 0 0 0 0 0 0 0 0 0 0 0
$$ 0 0 0 0
$$ ##$LEVSIGN= 3
$$ ##$MAXLEV= 20
$$ ##$METHOD= 0
$$ ##$NEGBASE= -114.44
$$ ##$NEGINCR= 1.8
$$ ##$POSBASE= 114.44
$$ ##$POSINCR= 1.8
$$ ##END=
##$RELAX= 
##$BRUKER FILE PROC=intrng
$$ P 0
$$ 175.850979   175.652378
$$ 175.648767   175.551273
$$ 175.547662   175.359894
$$ 166.639526   166.184550
$$ 166.180939   165.884844
$$ 77.821765   77.471506
$$ 77.467895   77.139302
$$ 77.135691   76.817930
$$ 51.527057   51.259849
$$ 35.476525   35.198484
$$ 23.950473   23.759095
$$ 23.755484   23.589382
$$ 22.614434   22.296673
$$ 22.293062   22.080018
$$ 21.332557   20.993131
$$ 20.989520   20.780087
$$ 19.960408   19.700422
$$ 19.696811   19.494600
$$ 18.440212   18.216335
##$RELAX= 
##$BRUKER FILE PROC=peaklist.xml
$$ <?xml version="1.0" encoding="UTF-8"?>
$$ <PeakList>
$$   <PeakList1D>
$$     <PeakList1DHeader creator="nmrsu" date="2023-07-09T00:55:38.570+02:00" expNo="6" name="8d93b60875bb_reference_108-24-7" owner="" procNo="1" source="/opt/data/apprentis.isic@epfl.ch/nmr">
$$       <PeakPickDetails>F1=218.322601ppm, F2=-18.322548ppm, MI=0.00cm, MAXI=10000.00cm, PC=1.000
$$       </PeakPickDetails>
$$     </PeakList1DHeader>
$$     <Peak1D F1="175.600845" intensity="3.966336e-01" type="0"/>
$$     <Peak1D F1="175.537781" intensity="3.401559e-01" type="0"/>
$$     <Peak1D F1="166.504730" intensity="4.544199e+00" type="0"/>
$$     <Peak1D F1="166.432877" intensity="1.355062e+01" type="0"/>
$$     <Peak1D F1="166.360992" intensity="1.319381e+01" type="0"/>
$$     <Peak1D F1="166.289368" intensity="4.481754e+00" type="0"/>
$$     <Peak1D F1="92.813156" intensity="1.603006e-01" type="0"/>
$$     <Peak1D F1="77.631332" intensity="5.554678e+00" type="0"/>
$$     <Peak1D F1="77.528572" intensity="1.630721e-01" type="0"/>
$$     <Peak1D F1="77.310211" intensity="5.692393e+00" type="0"/>
$$     <Peak1D F1="76.988914" intensity="5.579847e+00" type="0"/>
$$     <Peak1D F1="31.792513" intensity="1.565648e-01" type="0"/>
$$     <Peak1D F1="23.721729" intensity="5.121432e+00" type="0"/>
$$     <Peak1D F1="22.422462" intensity="1.475465e+01" type="0"/>
$$     <Peak1D F1="22.186850" intensity="2.890593e-01" type="0"/>
$$     <Peak1D F1="21.123196" intensity="1.500000e+01" type="0"/>
$$     <Peak1D F1="20.901829" intensity="8.362475e-01" type="0"/>
$$     <Peak1D F1="19.823814" intensity="5.191335e+00" type="0"/>
$$     <Peak1D F1="19.616144" intensity="7.441038e-01" type="0"/>
$$     <Peak1D F1="18.330051" intensity="2.845385e-01" type="0"/>
$$   </PeakList1D>
$$ </PeakList>
##$RELAX= 
##$BRUKER FILE PROC=peakrng
$$ P    #regions in PPM
$$ # 2023-07-09 00:55:38 +0200  nmrsu@nmrf492r
$$ # low field   high field   mi   maxi
$$   218.322601318359  -18.3225486578211  0.000  10000.000  # for region 1
##$RELAX= 
$$ Bruker specific parameters
$$ --------------------------
##$DATPATH= </opt/data/apprentis.isic@epfl.ch/nmr>
##$EXPNO= 6
##$NAME= <8d93b60875bb_reference_108-24-7>
##$PROCNO= 1
##$ACQT0= -1.70581753891579
##$AMP= (0..31)
100 100 100 100 100 100 100 100 100 100 100 100 100 100 100 100 100 100
100 100 100 100 100 100 100 100 100 100 100 100 100 100
##$AMPCOIL= (0..32)
-1 0 0 0 0 0 0 0 0 0 0 0 0 0 0 0 0 0 0 0 0 0 0 0 0 0 0 0 0 0 0 0 0
##$AQSEQ= 0
##$AQ_mod= 3
##$AUNM= <au_zg>
##$AUTOPOS= <12 >
##$BF1= 100.612769
##$BF2= 400.13
##$BF3= 400.13
##$BF4= 400.13
##$BF5= 400.13
##$BF6= 400.13
##$BF7= 400.13
##$BF8= 400.13
##$BWFAC= (0..63)
0 0 0 0 0 0 0 0 0 0 0 0 0 0 0 0 0 0 0 0 0 0 0 0 0 0 0 0 0 0 0 0 0 0 0 0
0 0 0 0 0 0 0 0 0 0 0 0 0 0 0 0 0 0 0 0 0 0 0 0 0 0 0 0
##$BYTORDA= 0
##$CHANFCU= (0..24)
0 2 1 0 0 0 0 0 0 0 0 0 0 0 0 0 0 0 0 0 0 0 0 0 0
##$CHANREC= (0..24)
0 2 1 0 0 0 0 0 0 0 0 0 0 0 0 0 0 0 0 0 0 0 0 0 0
##$CHEMSTR= <none>
##$CNST= (0..63)
1 1 1 1 1 1 1 1 1 1 1 1 1 1 1 1 1 1 1 1 1 1 1 1 1 1 1 1 1 1 1 1 1 1 1 1
1 1 1 1 1 1 1 1 1 1 1 1 1 1 1 1 1 1 1 1 1 1 1 1 1 1 1 1
##$CPDPRG= (0..8)
<> <> <waltz16> <> <> <> <> <> <>
##$D= (0..63)
0 2 0 0 0 0 0 0 0 0 0 0 0 0 0 0 0.0002 0 0 0 0 0 0 0 0 0 0 0 0 0 0 0 0
0 0 0 0 0 0 0 0 0 0 0 0 0 0 0 0 0 0 0 0 0 0 0 0 0 0 0 0 0 0 0
##$DATE= 1688856947
##$DATE_START= 1688856059
##$DE= 8.794183
##$DECBNUC= <off>
##$DECIM= 840
##$DECNUC= <off>
##$DECSTAT= 4
##$DIGMOD= 3
##$DIGTYP= 17
##$DR= 32
##$DS= 4
##$DSPFIRM= 4
##$DSPFVS= 21
##$DTYPA= 2
##$EXP= <refe_1d_13_zg_{nodec}>
##$ExpStatus= 4
##$FCUCHAN= (0..9)
0 2 1 0 0 0 0 0 0 0
##$FILCOR= 0
##$FL1= 0
##$FL2= 0
##$FL3= 0
##$FL4= 0
##$FN_INDIRECT= (0..7)
0 0 0 0 0 0 0 0
##$FOV= 0
##$FQ1LIST= <>
##$FQ2LIST= <>
##$FQ3LIST= <>
##$FQ4LIST= <>
##$FQ5LIST= <>
##$FQ6LIST= <>
##$FQ7LIST= <>
##$FQ8LIST= <>
##$FS= (0..7)
83 83 83 83 83 83 83 83
##$FTLPGN= 0
##$FW= 2.4e+08
##$FnILOOP= 0
##$FnMODE= 0
##$FnTYPE= 0
##$GPNAM= (0..31)
<> <> <> <> <> <> <> <> <> <> <> <> <> <> <> <> <> <> <> <> <> <> <> <>
<> <> <> <> <> <> <> <>
##$GPX= (0..31)
0 0 0 0 0 0 0 0 0 0 0 0 0 0 0 0 0 0 0 0 0 0 0 0 0 0 0 0 0 0 0 0
##$GPY= (0..31)
0 0 0 0 0 0 0 0 0 0 0 0 0 0 0 0 0 0 0 0 0 0 0 0 0 0 0 0 0 0 0 0
##$GPZ= (0..31)
0 0 0 0 0 0 0 0 0 0 0 0 0 0 0 0 0 0 0 0 0 0 0 0 0 0 0 0 0 0 0 0
##$GRPDLY= 76
##$HDDUTY= 20
##$HDRATE= 1
##$HGAIN= (0..3)
0 0 0 0
##$HL1= 0
##$HL2= 0
##$HL3= 0
##$HL4= 0
##$HOLDER= 12
##$HPMOD= (0..32)
0 0 0 0 0 0 0 0 0 0 0 0 0 0 0 0 0 0 0 0 0 0 0 0 0 0 0 0 0 0 0 0 0
##$HPPRGN= 0
##$IN= (0..63)
0 0 0 0 0 0 0 0 0 0 0 0 0 0 0 0 0 0 0 0 0 0 0 0 0 0 0 0 0 0 0 0 0 0 0 0
0 0 0 0 0 0 0 0 0 0 0 0 0 0 0 0 0 0 0 0 0 0 0 0 0 0 0 0
##$INF= (0..7)
0 0 0 0 0 0 0 0
##$INP= (0..63)
0 0 0 0 0 0 0 0 0 0 0 0 0 0 0 0 0 0 0 0 0 0 0 0 0 0 0 0 0 0 0 0 0 0 0 0
0 0 0 0 0 0 0 0 0 0 0 0 0 0 0 0 0 0 0 0 0 0 0 0 0 0 0 0
##$INSTRUM= <AV4 400 MHZ>
##$INTEGFAC= (0..63)
0 0 0 0 0 0 0 0 0 0 0 0 0 0 0 0 0 0 0 0 0 0 0 0 0 0 0 0 0 0 0 0 0 0 0 0
0 0 0 0 0 0 0 0 0 0 0 0 0 0 0 0 0 0 0 0 0 0 0 0 0 0 0 0
##$L= (0..31)
1 1 1 1 1 1 1 1 1 1 1 1 1 1 1 1 1 1 1 1 1 1 1 1 1 1 1 1 1 1 1 1
##$LFILTER= 100
##$LGAIN= -12
##$LINPSTP= 0
##$LOCKED= yes
##$LOCKFLD= 6785
##$LOCKGN= 134.176727294922
##$LOCKPOW= -30
##$LOCKPPM= 7.23999977111816
##$LOCNUC= <2H>
##$LOCPHAS= 341.1
##$LOCSHFT= yes
##$LOCSW= 0
##$LTIME= 0.400000005960464
##$MASR= 4200
##$MULEXPNO= (0..15)
0 0 0 0 0 0 0 0 0 0 0 0 0 0 0 0
##$NBL= 1
##$NC= 0
##$NLOGCH= 2
##$NOVFLW= 0
##$NS= 256
##$NUC1= <13C>
##$NUC2= <1H>
##$NUC3= <off>
##$NUC4= <off>
##$NUC5= <off>
##$NUC6= <off>
##$NUC7= <off>
##$NUC8= <off>
##$NUCLEUS= <off>
##$NUSLIST= <automatic>
##$NusAMOUNT= 100
##$NusFPNZ= no
##$NusJSP= 0
##$NusSEED= 54321
##$NusSPTYPE= 0
##$NusT2= 1
##$NusTD= 0
##$O1= 10061.2769
##$O2= 1600.52
##$O3= 1880.61
##$O4= 1880.61
##$O5= 1880.61
##$O6= 1880.61
##$O7= 1880.61
##$O8= 1880.61
##$OVERFLW= 0
##$P= (0..63)
3.333333 10 20 14 28 16.5 25 50 525 30 60 40000 40000 2000 0 0 1000 2000
500 600 2500 0 0 0 1000 0 500 10 1000 2000 0 0 5550 0 0 0 80000 0 0 2550
4000 0 0 10000 1110 0 40000 1575 3000 3900 3150 0 2119 20000 525 0 0 0
0 0 0 0 0 2100
##$PACOIL= (0..32)
2 3 1 0 0 0 0 0 0 0 0 0 0 0 0 0 0 0 0 0 0 0 0 0 0 0 0 0 0 0 0 0 0
##$PAPS= 0
##$PARMODE= 0
##$PCPD= (0..9)
0 80 90 0 0 0 0 0 0 0
##$PEXSEL= (0..9)
1 1 1 1 1 1 1 1 1 1
##$PHCOR= (0..31)
0 0 0 0 0 0 0 0 0 0 0 0 0 0 0 0 0 0 0 0 0 0 0 0 0 0 0 0 0 0 0 0
##$PHLIST= <>
##$PH_ref= 0
##$PL= (0..63)
120 120 120 120 120 120 120 120 120 120 120 120 120 120 120 120 120 120
120 120 120 120 120 120 120 120 120 120 120 120 120 120 120 120 120 120
120 120 120 120 120 120 120 120 120 120 120 120 120 120 120 120 120 120
120 120 120 120 120 120 120 120 120 120
##$PLSTEP= 0.1
##$PLSTRT= -6
##$PLW= (0..63)
0 53.518 13.806 0 0 0 0 0 0 0 8.5629 0.34252 0.33407 0.16804 0 3.0066 0
0 53.518 0.83622 0 0.00010824 0 0 0.0017318 0 0.083518 0 0 8.5629 0.33407
1.3363 0 0 0 0 0 0 0 0 0 0 0 0 0 0 0 0 0 0 0 0 0 0 0 0 0 0 0 0 0 0 0 0
##$PLWMAX= (0..7)
541.0441 105.5741 0 0 0 0 0 0
##$PQPHASE= 0
##$PQSCALE= 1
##$PR= 1
##$PRECHAN= (0..32)
-1 2 -1 0 1 -1 -1 -1 -1 -1 -1 -1 -1 -1 -1 -1 -1 -1 -1 -1 -1 -1 -1 -1 -1
-1 -1 -1 -1 -1 -1 -1 -1
##$PROBHD= <Z108618_0808 (PA BBO 400S1 BBF-H-D-05 Z)>
##$PROBINPUTS= (0..15)
<19F-109Ag> <1H> <2H> <> <> <> <> <> <> <> <> <> <> <> <> <>
##$PULPROG= <zg30>
##$PW= 0
##$PYNM= <>
##$ProjAngle= 0
##$QNP= 0
##$RECCHAN= (0..9)
0 2 1 0 0 0 0 0 0 0
##$RECPH= 0
##$RECPRE= (0..24)
-1 0 2 -1 -1 -1 -1 -1 -1 -1 -1 -1 -1 -1 -1 -1 -1 -1 -1 -1 -1 -1 -1 -1 -1
##$RECPRFX= (0..32)
1 0 1 0 0 0 0 0 0 0 0 0 0 0 0 0 0 0 0 0 0 0 0 0 0 0 0 0 0 0 0 0 0
##$RECSEL= (0..24)
0 1 2 0 0 0 0 0 0 0 0 0 0 0 0 0 0 0 0 0 0 0 0 0 0
##$RG= 57
##$RO= 0
##$RSEL= (0..24)
0 1 2 0 0 0 0 0 0 0 0 0 0 0 0 0 0 0 0 0 0 0 0 0 0
##$SAMPLEID= <>
##$SELREC= (0..24)
0 0 0 0 0 0 0 0 0 0 0 0 0 0 0 0 0 0 0 0 0 0 0 0 0
##$SFO1= 100.6228302769
##$SFO2= 400.13160052
##$SFO3= 400.13188061
##$SFO4= 400.13188061
##$SFO5= 400.13188061
##$SFO6= 400.13188061
##$SFO7= 400.13188061
##$SFO8= 400.13188061
##$SOLVENT= <CDCl3>
##$SOLVOLD= <off>
##$SP= (0..63)
120 120 120 120 120 120 120 120 120 120 120 120 120 120 120 120 120 120
120 120 120 120 120 120 120 120 120 120 120 120 120 120 120 120 120 120
120 120 120 120 120 120 120 120 120 120 120 120 120 120 120 120 120 120
120 120 120 120 120 120 120 120 120 120
##$SPECTR= 0
##$SPINCNT= 0
##$SPNAM= (0..63)
<> <Q5.1000> <Q3_surbop.1> <0.0> <Eburp2tr.1000> <Crp60comp.4> <Crp60,0.5,20.1>
<Sinc1.1000> <Crp60,0.5,20.1> <> <Crp60comp.4> <Crp60comp.4> <> <> <Eburp2.1000>
<> <> <> <0.0> <Q5tr_sebop.1> <Q5tr_sebop.1> <Q5tr_sebop.1> <Q5tr_sebop.1>
<> <> <> <Gaus1_180r.1000> <> <> <Q5tr.1000> <Q3_surbop.1> <Reburp.1000>
<Q3.1000> <Q5_sebop.1> <Q3_surbop.1> <Q3_surbop.1> <Q5.1000> <Q3_rna_c68c1.1>
<> <> <Q3_surbop.1> <Crp60,0.5,20.1> <> <> <Crp60,20,20.10> <> <Crp60_xfilt.2>
<> <> <> <> <> <> <> <> <> <> <> <> <0.0> <0.0> <0.0> <> <>
##$SPOAL= (0..63)
0.5 1 0.5 0.5 0 0.5 0.5 0.5 0.5 0.5 0.5 0.5 0.5 0.5 1 0.5 0.5 0.5 0.5 0
0 0 0 0.5 0.5 0.5 0.5 0.5 0.5 0 0.5 0.5 0.5 1 0.5 0.5 1 0.5 0.5 0.5 0.5
0.5 0.5 0.5 0.5 0.5 0.5 0.5 0.5 0.5 0.5 0.5 0.5 0.5 0.5 0.5 0.5 0.5 0.5
0.5 0.5 0.5 0.5 0.5
##$SPOFFS= (0..63)
0 0 0 0 0 0 0 0 0 0 0 0 0 0 0 0 0 0 0 0 0 0 0 0 0 0 0 0 0 0 0 0 0 0 0 0
0 0 0 0 0 0 0 0 0 0 0 0 0 0 0 0 0 0 0 0 0 0 0 0 0 0 0 0
##$SPPEX= (0..63)
0 0 0 0 0 0 0 0 0 0 0 0 0 0 0 0 0 0 0 0 0 0 0 0 0 0 0 0 0 0 0 0 0 0 0 0
0 0 0 0 0 0 0 0 0 0 0 0 0 0 0 0 0 0 0 0 0 0 0 0 0 0 0 0
##$SPW= (0..63)
0 0.0011257 0.00092168 0 0.12085 8.1769 0 0.0078026 8.1769 0 8.1769 8.1769
0 0 0.12085 0 0 0 0 7.081919 11.00861 5.140243 27.7209 0 0 0 9.9839e-06
0 0 0.058474 1.1969 0.37007 0.0047171 8.6682 0.59448 0.00092168 0.20013
0.24535 0 0 0.14862 8.1769 0 0 0.10336 0 1.5752 0 0 0 0 0 0 0 0 0 0 0 0
0 0 0 0 0
##$SUBNAM= (0..9)
<> <> <> <> <> <> <> <> <> <>
##$SW= 236.621487827398
##$SWIBOX= (0..32)
0 3 1 0 0 0 0 0 0 0 0 0 0 0 0 0 0 0 0 0 0 0 0 0 0 0 0 0 0 0 0 0 0
##$SW_h= 23809.5238095238
##$SWfinal= 0
##$SigLockShift= 0
##$TD= 65536
##$TD0= 1
##$TD_INDIRECT= (0..7)
0 0 0 0 0 0 0 0
##$TDav= 1
##$TE= 298.0005
##$TE1= 298.2704
##$TE2= 0
##$TE3= 0
##$TE4= 0
##$TEG= 300
##$TE_MAGNET= 0
##$TE_PIDX= 1
##$TE_RAW= 298.2704
##$TE_STAB= (0..9)
1 1 0 0 0 0 0 0 0 0
##$TOTROT= (0..63)
0 0 0 0 0 0 0 0 0 0 0 0 0 0 0 0 0 0 0 0 0 0 0 0 0 0 0 0 0 0 0 0 0 0 0 0
0 0 0 0 0 0 0 0 0 0 0 0 0 0 0 0 0 0 0 0 0 0 0 0 0 0 0 0
##$TUBE_TYPE= <>
##$USERA1= <>
##$USERA10= <>
##$USERA2= <>
##$USERA3= <>
##$USERA4= <>
##$USERA5= <>
##$USERA6= <>
##$USERA7= <>
##$USERA8= <>
##$USERA9= <>
##$UUID= <4c37b4e4-9d74-4ee5-8416-a9051d0c13d9>
##$V9= 5
##$VALIDCODE= -1
##$VALIST= <>
##$VCLIST= <>
##$VDLIST= <>
##$VPLIST= <>
##$VTLIST= <>
##$WAVEMAKER= (0..7)
<> <> <> <> <> <> <> <>
##$WBST= 1024
##$WBSW= (0..7)
20 10 10 10 10 10 10 10
##$XGAIN= (0..3)
0 0 0 0
##$XL= 0
##$YL= 0
##$YMAX_a= 615016.3125
##$YMIN_a= -756498.7265625
##$ZGOPTNS= <>
##$ZL1= 120
##$ZL2= 120
##$ZL3= 120
##$ZL4= 120
##$scaledByNS= no
##$scaledByRG= yes
##$shimCoilTempK= 306.15
##$ABSF1= 218.3226
##$ABSF2= -18.32256
##$ABSG= 5
##$ABSL= 3
##$ALPHA= 0
##$AQORDER= 0
##$ASSFAC= 0
##$ASSFACI= 0
##$ASSFACX= 0
##$ASSWID= 0
##$AUNMP= <proc_1d>
##$AXLEFT= 0
##$AXNAME= <>
##$AXNUC= <13C>
##$AXRIGHT= 0
##$AXTYPE= 0
##$AXUNIT= <>
##$AZFE= 0.1
##$AZFW= 0.1
##$BCFW= 0
##$BC_mod= 0
##$BYTORDP= 0
##$COROFFS= 0
##$CY= 15
##$DATMOD= 1
##$DC= 0
##$DFILT= <>
##$DTYPP= 0
##$ERETIC= no
##$F1P= 0
##$F2P= 0
##$FCOR= 1
##$FTSIZE= 65536
##$FT_mod= 6
##$GAMMA= 0
##$GB= 0
##$INTBC= 1
##$INTSCL= 1
##$ISEN= 128
##$LB= 0.3
##$LEV0= 0
##$LPBIN= 0
##$MAXI= 10000
##$MC2= 0
##$MEAN= 0
##$ME_mod= 0
##$MI= 0
##$MddCEXP= no
##$MddCT_SP= no
##$MddF180= no
##$MddLAMBDA= 0
##$MddMEMORY= 0
##$MddMERGE= 0
##$MddNCOMP= 0
##$MddNITER= 0
##$MddNOISE= 0
##$MddPHASE= 0
##$MddSEED= 0
##$MddSRSIZE= 0
##$Mdd_CsALG= 0
##$Mdd_CsLAMBDA= 0
##$Mdd_CsNITER= 0
##$Mdd_CsNORM= 0
##$Mdd_CsVE= no
##$Mdd_CsZF= 0
##$Mdd_LrLAMBDA= 0
##$Mdd_LrNITER= 0
##$Mdd_LrRANK= 0
##$Mdd_LrZF= 0
##$Mdd_mod= 0
##$NCOEF= 0
##$NC_proc= 1
##$NLEV= 6
##$NOISF1= 8.174992
##$NOISF2= 6.675002
##$NSP= 0
##$NTH_PI= 0
##$NZP= 0
##$OFFSET= 218.3226
##$PC= 1
##$PHC0= 60.70192
##$PHC1= 4.077535
##$PH_mod= 1
##$PKNL= yes
##$PPARMOD= 0
##$PPDIAG= 0
##$PPIPTYP= 0
##$PPMPNUM= 2147483647
##$PPRESOL= 1
##$PSCAL= 4
##$PSIGN= 0
##$PYNMP= <proc.py>
##$RDF1= 0
##$RDF2= 0
##$RDFWHM= 0
##$RDINT= 0
##$RDPOS= 0
##$REVERSE= no
##$SF= 100.612769
##$SI= 65536
##$SIGF1= 5.6
##$SIGF2= 5.2
##$SINO= 0
##$SIOLD= 65536
##$SPECTYP= <>
##$SREF_mod= 1
##$SREGLST= <13C.CDCl3>
##$SSB= 0
##$STSI= 65536
##$STSR= 0
##$SW_p= 23809.5238095238
##$SYMM= 0
##$S_DEV= 0
##$TDeff= 65536
##$TDoff= 0
##$TI= <>
##$TILT= no
##$TM1= 0
##$TM2= 0
##$TOPLEV= 0
##$USERP1= <>
##$USERP10= <>
##$USERP2= <>
##$USERP3= <>
##$USERP4= <>
##$USERP5= <>
##$USERP6= <>
##$USERP7= <>
##$USERP8= <>
##$USERP9= <>
##$WDW= 1
##$XDIM= 65536
##$YMAX_p= 416864761
##$YMIN_p= -5078990
##$CURPLOT= <>
##$CURPRIN= <$>
##$DFORMAT= <normdp>
##$LAYOUT= <+/1D_H.xwp>
##$LFORMAT= <normlp>
##$PFORMAT= <normpl>
$$ End of Bruker specific parameters
$$ ---------------------------------
##NTUPLES= NMR SPECTRUM
##VAR_NAME=  FREQUENCY,     SPECTRUM/REAL,   SPECTRUM/IMAG
##SYMBOL=    X,             R,               I
##VAR_TYPE=  INDEPENDENT,   DEPENDENT,       DEPENDENT
##VAR_FORM=  AFFN,          ASDF,            ASDF
##VAR_DIM=   65536,         65536,           65536
##UNITS=     HZ,            ARBITRARY UNITS, ARBITRARY UNITS
##FACTOR=    0.363304501488095, 1,           1
##FIRST=     23809.1605050223, -632277,      344716
##LAST=      0,             -1067358,        -483001
##MIN=       0,             -5078990,        0
##MAX=       23809.1605050223, 416864761,    0
$$ Real data points
##PAGE= N=1
##DATA TABLE= (X++(R..R)), XYDATA
65535f32277E0844c81511m77389c84309k07089f3633j064095m9043L1092D10990
65524A81586n5047K32032c70627I56128D08660K62824B1081a566316O72788a50402
65513f51678B33204j10017a336984o05856R01673e3187D96638B30909d98266J47504
65503c50762L2148q80688m13547O53808K70805F57219k15093R33085J24372B03062
65492A095381k05934b5632j15297e1062j377948B76160J854100j73619d4703k73140
65482c17843j06328d7672n96521h2864j683775B6113a308046B8968f33788k78176
65472i11964m71924N04042d34057m15209I5906M2049b01523B72172N95939l65221
65462E02890g6976D77285P65001C99144n8243f30572G31713C33843H2842d67040
65451b20063E74360a999442N13876O82850m22171L28512M25910J44255B50494
65441C47483K72580J062136r4061C48322J87619G824M8148d14543E9191O4234
65431A23425a49363K6296n62808j44228I64149k45724a423831c2351p74695c75668
65420A153252b23562I9697i18612j85814M53079m12226a3189D44797p2064c41719
65409I71288g06035l02228k76053q47776c59005D96149Q00194l47496D27013G4676
65398B43189f74627b3962B31955f8815m14606C84101a138084k95105E6362M81313
65388E37675O32163J579097G61897b049171P99222D20781J081474E21094R45075
65379A466169m75928a19396B55699R7060L18141L10039a511865M51785A37956
65369F06592E8073d76336a12845B86751M61535l59610a356588J72340c94866O2543
65359c32323q59961L54182A1047R17243A39817a52694m54524E02285j81804b94439
65348B414000f93403p62960g6687A178634L33803E72072h17817B79256O80447
65339I59703R36446p02921n19967K27239A17044g20874C6465b98404k89672C90685
65328C24008h22091F99300N48669B24431P40995j3767N2870B73149K94164j36769
65318D30544N33184J163563A058761l40973f11604b88402n115j67945p30110F77441
65307G45909N27275D77207g33830K28111B334J524995F00433j6299r5703j58969
65297C29462N74763b13691q75270c86482B91336h36067O1931l95049N23525B41502
65286e72020r06054g17010a84950A509517p23635a094944F45787a78888C05392
65276B68400M94758n8543A5703b7596D9590K3274J33615q0851e22052n72610l25560
65265a420222L01025j34749M01842o3723F10145R47506f4236j027276C23522C1534
65254a81153A48314K7921d24154B42251j15202b8839m24179n47879F76584O16025
65244A292609M2976a44276D00936J182524l75376n02413l02738b21641D7673O09115
65234F56788b27991l10453b39504h8755A303566d69166l10931A96237J081708
65225A277945A73810M10711L99620J46059h41345I66483k65438C12827h9200j954057
65215b043257f62940F90179N70103n46846d92902a05554j586485M95443A74942
65205H08209B58953d08252J64644C40780j41365A7130J61765f24580j247077N45727
65195a325930k65520L22809L25013a18760j289763K11243A059468a87959p67234
65186i55193K20560B5450b37731j90999f9795k53696A327080J94273j43066F63198
65175e77778A65404g41964j542215c71012l25563k51604M49470A02795d3722A129510
65164g41363m80310N68722B50164G9228a281813j520149J013818e24444C11425
65154A212464E71205i9199A066569D48888J178560p06240c08230E25978A93740
65144F69609K26881k03718C14501d88428n04092a27878G42881j27120O15377c15345
65133b645528N14186f9979A098954g42686A88157J74156A68409Q04125l15598
65124F56936J83925l07145L02740K17704E09854K159487A034219c41570F57889
65114F16248a95859A52220J019432B43736J50196J266058o42720i84285q59991
65105a844276b72557l6459k84583k36618F8640a056096L12399j6019L39604A374738
65094A499998c0675F53795O57582J65671E98140c80938j010370b16570o8048q7166
65084c71784P3399D2866O44341a79862E56424O45654n63590J476845d90894g2067
65073A914182j21951m80358m35814a586497e13858j38842C37841R4645b48734
65063a394954l51406b92158J10559A386405A70056J512419G84135C21492J37670
65054D59162B9675O155g82423G48329b26909j732486c07361k79674p94469q0891
65044a462395f02572K34068E86868i3060j012124m58230B15299d0785A854739
65034G48820a166299L47051L6630j98293n54156b36022j220024L41567A047619
65024D63134k4916L48780l93157i78960m88997I35321E1375i40750M28489m69832
65014i82093i5667j530731j438802a331592F54856f76575b53235i0384p70526
65005h60910D09623J960248k66955e60078m73832l88065a25695B15947a935570
64995h35455a27211n21308I9304a097855c99063K316C13019J154204B47706N92909
64985H40615q9380a32542N7781k24996B30001K99113K44561N66921c54922O0096
64975b94826D93009m019q8887b45165E41817k07450A43455J471679m50244n10108
64965F54782j45806J482484D86916a28344A718054M41245o97760l22847k36141
64956I02551a135508M89709B99338Q35116k85029B37267L31276O34066l22569
64947H80040h29964A120611J082320A95589J051267E48053b8800k066j9116A950746
64936B214682A026338J618828A191921A88644f94052j48163d12310m44762r92173
64927a849245e25392j32897j225412n94909c9310q26804j269930D88349f87663
64917a853848N22444M11324D06701K142631A089737j78503J008844p04487B32817
64907A074290l2769E17601e56518r66290j71989B51729J79151g69029B59864Q08440
64897A068304n08202J228452G98697k62363h39435B19536J289670k10622m6637
64888A251947f35492E08507A74636J237637O46311n77648J71047M12812q08851
64879A255944a75280j153425N57203a91261E90534k55518g24087c08389B98664
64869G75177b59348j192309O09355I15071O62807a10573A31161N20626b41173
64859f51577C90623j28492Q69925D89817d51221i7833k88050a13029A000634j14909
64849H85725B06137m9472J573752F30635A65328n9339Q12571L07991P44648l45419
64839A625780D88486a42679o90087B0388a480213K3634D60807P59458H1692L9083
64829A20775a26037q05130D04619O21129a058344l87947J59876j28480L93216
64820a021679o18806L41207A90593L47907A3637J405767b70654j312085K28847
64811a353892K62574L17207B406771G5524g86234D24717d49574A46380e304E62965
64800b84437j069809J82066I2474a33231j64901D62086c74520j112692n18686
64791b005898P69041d19994a50996N9746k11113A686586k69468d26739m45109
64782h71848k05356c36470j88498j172027B52897e3168D8744f91488j247904j18106
64772b057498A2690K82449Q24912M41113h94959j083632g36461B6325a442216
64762a03664A501728f27689H24984G9396J138358m85341K46289J908591A435408
64752A329702b46310D34924i02045j864393c06278C96996J307676a347500k17312
64743a564812M74214C88440j29338d37632A551491o47364k26445g26284B901L37964
64733C40865J527051I28777A67256J199470n5317o37847a343591j113998a092585
64723b20870o04701p34822C1671O86698b2209j390698N069J51750K16503O0812
64713i78773k09288p21026b18454n47140k29697A483996j75768a718252h05951
64703a010366H97405b97026k509726Q21613Q02036b20013B90036c33705I9101
64693C51751i17245c88213o34525o5431n5707q9984a23466j104214m96622q39196
64683b563498J89357f76250j1219A98502K98864P45903b14577r62598l35229b52620
64672D99702c58472B11014a85536A31762P78731e82377A62687a735339O70338
64663a065001A56803J539391m09495l30110d0142m87451B528d94139B55203K046560
64653B301763p58829E52260N99396M50351B4196h17577K85705k98976m66860C11883
64642E52189c90376l80276C50429Q82495j77363O07049c74169k67820q71668A660650
64631B549410m88515J99176I78488k84230j77930f8445j240644B546240F32832
64621B55579a212032d74392A605034N14178E58653K06876q0243L35011D17525
64611D67846N84459H4483a17178E27901A03595a149419M02604C33532c6436p74005
64601h10441k14918o87028d37548n54688G47765K27573p973c86004l52343C2295
64590i61867j521806J160536j419300A7043J109547A42000d96204j162428A027911
64580A650730f8552A557246B12072M35331a800139M84024O23222o006b45878J6801
64570b29077p38842q0317j819155f84079G53023B11195b47591D7695a003872a0640
64559H31565f02175E45529K69006P89002B52722d49156l59625H74942C67136M64682
64549H31818P33478h54763j063376c22051r4617B00440g87236A675114k51403
64540A423711j5936E1198g18276o58626n2429L74860A879501J670743j699411
64531A850833F39698a531596k51137K75585a11951G09658N72967l46974H3628
64521a728632L80168A61011a55013j142970B64913a14156B00953c69412C20426
64511A537627j75383k73145i26999n50855K99486B55317J214888J97144F67526
64501a019203A160889L24937F77822J457229m30021l14744A37224a081823d99583
64491D66112n7059N87810D80976i02021B108415q48115g1960C27654a083340N18214
64481e65126D02083A30708M75646a62186l37391F0539g56875a44060j798640N57221
64471a385479B204015q82516J205998E40922c12642A455203B88224a103119p46564
64462a849683i23084A169504O45677k42605F62626h3532A39023R07027r6243m74131
64452D75676k19326c02196j05093C40258M33400c83977N8697A39901N71638l44414
64442C67125L81537b91553B19504f36712B05037J035118j33730l61800j31760
64433F12865i96628A38676b06467l73248k340964R13799M24255p6705I9982J631140
64423A731122f68680G3266M71136a736135c84803C05216J039299d08841I21021
64413B79177J94594e88866i4697A345881J78314K11933n17574k89329h99169R5056
64403h04113c42082i8710A036525M228b406539e76206B01831b54309F43113h75778
64392a173488K5870j002494g67441C35785J164134C11791g44560E82976a502046
64382a175222C71734O03003i54820J52501j25192r16159N43912q06171D66046
64372e1308j19759H07123B87674a491887N29600H7697d67381j16078o24133L55151
64362h52441o15669f11458j883886j370375c19259j546841p65077g01212k251584
64353b952796P57955R22173a78300o72692G6741a212111a11314l6445p9139D62809
64342E29363d40379E44377J221489m15327j37077e6362j57707L9783A52537M21035
64332E73572N07943O30735j15296C76978a2543q46163l38932j43712A427497D1418
64321a308643N67283m79792G43909K43125d06641F38383k94573L43152R84094
64312A671056g99799K06333b71884A837936C42288D4042b92491A432273o5138
64303A367135m70202d37057l23148E67922M53208B03045Q216K65299J431520q13909
64293A094171o3769f39493C93735J640507I89325d16888o03072A291685P99483
64284B091168A06400O99844k8909a93851A220808Q42081G47380A36361h8363j633973
64274a722336f93441a42508A083867h01375A010917B48097K33702J065788E67527
64264A002684d94234j525576P46053e16766A540759k42983a012533L43488B156034
64254E64214h04472n57127C41047R2541K4667a955395q65767J032009N82160N98356
64244f08637A806782F09645J320691r7157F39208J218702A24496a186232K53559
64235i32673r5809r9989b44695G42157J67003A87659L87900a87908A75772c1803
64224b950054A23897L48880d71098B182666l26902C5555c43496k97647A423345
64214B617296A149555M11833p51233f57599o88857D18662P25957R8901N97793
64205A841313F52736R54103G75948D9030R7652a72097B476151j116885h9431l87606
64195d77037J19870A221213c59430A094271R07088I2683d30476o52047A76230
64185A24489f4464I69683M7963j42451g87175c66872p29964b36298B62900M49624
64175G12524M52356J173660j097847a99123G20095A58808i70594M05744E60433
64165c42906A227931J95780k47032C07542J254480E93083k14345J91007B38847
64155a75697g6257B14348a179216A966724b78523j039322L95461o67777O17478
64146i72683B367870I14991R10387C92028n865h15121a04626l317j629278G48682
64135h63587F79875b51094D75114e38532n38571o74455M92542N92789r2694j237402
64125a996323p73583Q52164E16584J250601D19647e19362n36583K52974C3603
64115A210124k49680D54109a042783M31363A082084m64263k33235i66088K42777
64106g23311D18766M01682C19534d7186l309068f11194H03147B33464J172606
64097A406070A04571P18974J446624p48206B39998d36966E45626L34630P9196
64088I59452a589632c12207P1515A55052L51602d9576A214629J3469d1450n16120
[...]
2935d99268q77190d43223J28491p63535G2079N88554L91439P02715H8460a82288
2924a51573k76584A97112a584049K44173C45486J46037b200978m05352p20376
2915c326706d57573D91196L10655d71664G47736d47228Q9395B06994J25560a666005
2904b3445o58899B44450K19491Q5775P50288L06061B590a726223c42262E91439
2893A425025m46411C97285j19309N36697b90965l20697H78576l12433f4171E23236
2882b53499D4705b46135j458877g22204m16001k40813f02144B92062J350680J89859
2872A832601i04068H17054L88470B90549d13406q24239d33617o35381G8423a030298
2861A5636P62133h8878l53463G26422P81551o39670i72786L41037H2409a116736
2850c37302P7626j471789n15419g14890i2659k405466M33811F69405K07866d62305
2839b12006A79166b79664j152823m38872l63532o13485N23564P44670Q4291b35005
2828a401482c87891D91884e56171j948847b33981G06511c00241k395170R29910
2819a765501d77078r40892h9071C92389a557174J84665G10539J082050d75516
2809a469796O83620q47567q13200Q33334j570742L86338P85327M21892n28194
2800b118988k31797g04285L31886l04385j621942n93652J315835P58173q72629
2791a690999k79407M42025f20193B5681i05903A84477a112541J39200c15633F88621
2780d05209F64285a743074M27471P4150a01383j200819j354008b63704n74260
2771h37964n06241I1027b61254m30077j217866Q54114D18458P71743L39908e97611
2760f80212K40279j252908q84734k24400a017657L56150K55413F56381Q8057O69453
2750A413891K86905H31686a31314A20239a182011B77266N63384m7940C49257c25679
2739a285295j077199M91070R4320d56126D59026d13647q86008f32245m2938l08223
2729i83406c14079m47594I6207O41927C63685D7801J192748n36595f85465j120607
2719a806072k16424m8084a13916j3209j271969j403575L24026q4585K89139P90904
2709a483185d64473o97246J58041k89369A75343K42117J76932a221270j417578
2700b638848f75361F93610J464260g35395l5853A113625C35321d99423k424159
2691b923582J237417J27167M32228l76848B842558d6457B04947R50555E71647
2681a140753e44747A201760D39518a35069j424889c60744I9649N35312a0483n21419
2671e31902r44499O47702K10259C24944c69285j433869d54306a00831i891A00531
2660F7175b2050C44405j7273Q75761K37614p01360a07630C8292a217938o9505
2650a287443C54979J289669J95544j36745G51769f55770n4910G53542L83402K7307
2640A164251J92941F47557J82489O39256A34667i75393E96536e54099G25459a834853
2629h80033p05432j857721J021481a151192J56156E09611a131792b04760n6150
2620b60910G0889L50879R7683L50894A18522R32272Q20940c00130j583503L37212
2610a546421l90787M4907c85602K4857m65627j216990G6307a74603j963745H0704
2599A350750h00652l68820q52424n64485Q9261g6460n01112k297223J042962f38423
2588f13262j361665N53714d0585F93542e07230o22122F64789B75959c34079j633364
2578a967443f29192K56345r48561L4366A281316a534998c77224j82259k32071
2569g91554E56626e42144J97264l97281G24933e33871k15073p53444d64009o42379
2559a106388J65623j328389r2705D47280L39703a190939E2305a028568M12526
2550f16042n05573j75145d38669A080816B92408i52896F69692O9952b32441k609670
2540b842111J334311B47030a395558b47032A286659H1100a149244K26131j85042
2531a108155c09419m55948n90424j193180P48510f8303j965091B04901J450656
2522A655557o61585K116431A15233f21642H05442a20792H8338K68525b56832A003382
2511D6155c88945F487P5963b09442j57823G90518O06167A90096a088122J22222
2501i65900r9988n12836B44046Q58355l35310j41598A65502Q89512a32636j547013
2491a679649p2857m66533a066283c64974I576J052236c46511j242640n53750d57296
2480b592682j477686a651188O12934R8318k85601B15458c13989q40159J55022
2471i99126K10566D98548f73585p60497l04127h58902l02782k345838a482961
2461F90384O02759E85138B10160M2749b064218Q41287j293115R20085P20061M20866
2451d55034k58564o34349L32397J87344m71944j33761m05316P38305c29450n95634
2441i25084o89965n14543e84568a33704j198347N73642l86046C48674N8581a260962
2430h34423c37225G68265A19384g3541j704901l50770R53633m33271J62972e62442
2419a384441k35566H37478L09771j1584D64753N10050a28882d4475o99963n51064
2409a295502M10908F8856J80013J676304b84250C72223J018084g61134j723932
2400b485066h8443C80888i55230A400225o80830a830300J52951l9864B5949J291081
2390A317030L832B98235e05674D4716d23884p63799k16533p66096O43622P22561
2380h04129k66073c64113C18526P76344k53440h35184A079113C89226K50072Q50183
2370A489481P04469r79229E36011c54987j087053O32440m78199o70713l73094
2361b331606g53166K58402b32716a7869j213839J1792l47872M04543I13214C94346
2350b78824j095458p88772K4933k79466m06239g10864A77941a528531l45405r2042
2340a965978e95084A37457M20343N76349m81550a7086A247334P04060P12921H98963
2329b045329B9974c04447A196971C80749a344747M10638c56980B57584Q00529
2320A058113R2064A24004a11828A753864D21710B4465P58100O6432O69765M73705
2310A992467a545063j22015b09851m6964A28891a001945H76311b99249m20184
2301g19433A23854L33410J668968D69169g74123K87732p97326Q240K39657c01623
2290e18519j563008H0316R8369N73294e97397l78314l72744K04757j648320l08852
2280c100870Q95833N20337c48432m0524k49863n13927M79144b14305l60305a69965
2269d1087A350462B00233e00441j272224E37018j27233a045206L04622l23322
2260a063906c69087A04061O01870a826233J4556b16502p68869j164889n56129
2251b706389N17069Q29441C9679d19669E63258f9803H38445M25352K3359c40023
2240A098075C75912J471436A94749a58691k732240n0968K53314O46097P00112
2231a342376o41248A18459n6330a030673j027080J004256c55776o28884b70040
2221H45276j68428a096809M99482R6205J8428A027681B33531i21488j101203l54370
2211b377061h25831J06345M6019F62766b100586p1472M52126N64296N7568j37862
2201a235930B67288i82186j46649L45148A238988K81431E26359P14361E97375
2191D19419R21650I523N5483K92482a434229d92542k70266A24786e65408q589
2181e73997K57214o52748A95239J90216e63453r48402m7438E86543b231473Q46862
2171a384611E11915Q48379C9185a065277c08669q5011B63276l3742J211i68468
2160e59658b5254A5500f82272B88750j03917a875450b90756O879q8172m62962
2150h35011c55537L0722C31693h27089K2407m31741e06957a52197j547828A510900
2139A452893e36754j172955d2818q9457G27971a5265p92221F48633j91207Q31645
2129A289071b690j4997l6249m94087K21928B00637J132934L5348D92070I6007
2118I09736N64146o43379k10840N68004J90699o54304a222787A118838q6292B74406
2107G88709J62475c13833L2793L8995o11274q2092q28613c16767C26544g87229
2096c52306E27562d85240j208444k79349J0774J57882G29023d45124p63287d33448
2085a498370f83514r91264C76487a98169P1774f2443j517139M36755a57344A091141
2074C52494a215219K09334L74513E46312a510977q98665k78033J52760d25808
2064h32548k304032M82105d00031q72060k38840J65962K38583r9245I24692K7336
2054I52028a017893L75616B123036B89386a181210c36119k006358m3572P65224
2045a620825f04931J02528B12180d08581a73025K6123D99633i8034p73130c59707
2034a18639B3835c6585j65081j263333c09572j189750h1377B8919J6718a93438
2023b13874A201077B92554k6794a127225L48264j51345A059287h17278p40254
2014a557532E91303g07863a97616n60236C01755P16388C12221F8730a376004K04302
2004a171702j43488n9121c33508r41024L38541L80538g6548j200663j074616J017817
1994a334010L82945l00917l33436J25916K42703p3029a50926A627454E68127Q62852
1984A430979A21936f0567B99568f13045H18937M04435E50762L99347g83970j231486
1974b015456d80681l4060k23346b19647p7561r98911j291590b97895g4240C9696
1963A86739c8008l16180q70106F38925A82892c14686l36525B24540a356113A070208
1952a152469H79635c70295k671996i85669b74741p19272d71617A292662O98580
1943A991242B9686g86450G53025c26114n08280J52463L10916D20653d0267A550845
1932a55875C49190a44615j522435e46805J68734G5634O83417a119244K89240n45635
1922a375639G40643J72998B8268L42088K78126a530800O65311A450691A43025
1912B07435R93401K81172o95256c69764n27530l60453p56789M33728b13721n49624
1902g63345l65416E31226G8173J474452b39303A005980N78492D45114f41782L19714
1892c22068B78675d34040n73986H93253A74910a736631h03080n00065m1183L58497
1882i85831C51394a81054j352659j37699A150245n27509K68973Q3058a395454
1872b58977n39759K24681n85586a07503A83211a268113M03583b23420A051340
1862a117134k09248j620007f56824j53129A10314O45374J75541c78318D17490
1852e76353p98483e15137J53770A331187A70905Q11934f81673B08281M93674J290976
1842A992931C82791K61436N12129b68723E64840k38148J72276c00077A27332L74230
1832E01562J758070p88905a027779d2510E39794K97401g09060k37547b63377A248243
1821A702066a561952m50134k24655R32962G36086A6709a244843a52890C77957
1811G79758A58233J87839j55506a37682j02397n7555C2497a948683a80885F73967
1800A237654n36858A95965e25931j395918C13609M21821A22074a39404G09850
1790d28474a37439B2548J070912a086710m02441A76711i56402d2564l38696j426968
1780a808228A34018O47465J8721d2742p71684n45593f79062q20800C74433j08246
1770B66187K23480a801178d78690A64480L90944J511646q05024c19200j176627
1761a495827d25537A98393h38526r34753e46459K03334j300336c10706j70392
1752d81098B85679M32680j03185M0677b48242E97217i26227M16803B78988j19318
1742A59670M12091e98333J76338l77110F85059Q77291a188678p51167R19621A22134
1731e29059b48574C43627L27665a150518j177733N04206h86060a02141E84890
1721D76642e37165j150790j686015J474180b09141A272953d45798A2469a001342
1711g70144j082738a19810j974090n6408A067787m70444B72599J59709j76121
1702B56187R68330j98230A2696O8837f08198I8237K96918q4019G2738Q12087b073999
1690h99866f447j50011B54166J80203R00256O72217H78585D21033g2651q30487
1680i03138p69107b74059r79681n02576Q18739k4961J97464J47643j113655P59731
1670i71355K25030B56602M87871R095N03615d37332j039345f02454k18664K49010
1660e72108n08677c60248D08137E2763J041085l05781a74709G3125f2692A318588
1649C142430q95325f65335C08291i54870j919110M76665i08124A2219a415211
1639a091405A474364c86058A081759J11965J108750j109581A29934J092448O7337
1630A289719n53090a505210j072307N93960o26965i1015j334098k053261c26411
1620B34876J37746J14124f22654D24079A96356c39725A19681N80935b17610o13465
1610h31075r02740b8610H07049j17797a209427e59724j624357o6007P18412f32311
1599a186435b34418p02748R232F82177B60846M60984b51146l39912o33106c06042
1588C25851J195549r415n32166J22256m75670a98379l56577a9323j708841c80134
1577A039274M00698A98209J297289d16243a46795H84328h46539D11449a089441
1567g03550j459266N90827k444877J775269N67807e71746l32789p59232i4464
1557i80566q38675A39073J006136e20788b34289G2936J081687a207353M74676
1548g32677C8129O72373B28850N52992Q65224j07144b71416j502657N75683e47339
1537e25227r817b34454B40770A18461N33422i82196D67376j80969a155779d79022
1526A211602l13752K79804m16582R0297P4879f29406j053365n67846h83078K90572
1516e92506a70930l92865j357197Q23488a53137C16254b179097C06516a553835
1506a542480n25544m84205a083124l02427j043962n19035K33767r58926L38298
1497c335409a551399j359984J297062m00512e75755B90252c10589m7265I3940
1487b140490i85452p26379L551N37561j58164d54208r57857A338749D6139M98706
1477E44845J966926l91840H06869h25370B45274a408399j760263J033634g00070
1467a324899j027243E20795K570443r71785L39494n10949f68983a98693o11482
1458h10175b51179r30008J2218j80993j98964f96447k49110m86032H73360N7850
1448I31210b313506a44045n37683k522937o52765Q44705a165997G65872B21987
1438A01349l3874i46826k380040a588268d85724j259460M9781L62127b69560m46058
1428g15618F9303h96419g3217r23641d52491j383101g93641G65299i03571d40053
1417d91072j85612P4608k098005A00752J02190M48133l9164b67065m72071P2672
1407f66464r09116g28570a36100n89024L34752C57770f70089o02971n81274L15087
1397a539247B142096H80457B55119L64916l00342d49178J20974a60337r52162
1388a112499M1051m7098o08949K39524o75933Q9197k71421J070816H45969a154549
1377a155322q60569o15631A1436J285134d22957G39706A43544c45986G96503a41432
1366i78329D96790D9059J533887E90915i4053j174540G32337R18307F58926b206286
1355c76487p77417m94896q8978A67739a00600j036680J3348L51572E53820d22514
1344b849922M75883M45587j206691g81245D81436d73657E0642i6578j267098F01132
1333A934171A52815b60862E19250a546976L36881N22256j640534p22848J098100
1324a953121f5905A957646k44857f25549C15674K4594b50606G65853L08879I1151
1313a414878e90862D06513N82780D09408a45229G72054i09924r55568Q56826J03480
1303i05186B81479K361498H4749J856101M28291j088006d92577p26601H85591
1293I64723l60437c71135O364E54588a333291m85233O00602d55452b07691H6059
1282h03039C22032i76882Q2892F90619l08369l039b03300j303252C82509A03016
1271b28082l07797C8213a232449L39477j446622e95968B238903A31573b46795
1261D16996f29707r484K52478A318308f12222m00032j18401p70130o75573C6860
1250B644070f03536A84835d23029n08303j325088K53221k52364h68861n04736
1241a373597c36176p23029p35141a43144k391023K91370B29629J329660d48241
1231a239473F94097l29340M31751C14911P18846H7760J360741f89606b34613A134361
1220E92315h33729c178A0085a078842A726119R33476F90513F6356N49578n8574
1210E57360D2451a462761d02050A79548a412I80232q4088C94912J561969M45355
1200B402236d64215j63784A297034a513292j293791O33026g45510B03044a44749
1190A221080m25440c9051A322988F7212c10006o37895j112291p80941a117996
1180a075000P7473K72039j097698P751Q79476b29881r70090F84450J087247C0189
1169a496528A4741O41030N21936b211472j121137J336445i66058p31863b90753
1159d85977o4202c2990o8420H91596a97439p45359h3222o93571k2786K77277j1787
1148e34089a02673j171973d70223m3078j973551K18689P22995o57449b94249D05957
1137G53277d13038j436018g96401j324994f46301a74614j449906f19014K9488
1128e89526c0785A213587E75235J17813e06519b34210n95612C664J58798b34138
1117e16911r63833f33882K70338k10891j242568j128399c77889H24982k08780
1108F16202J010500j68676a615600o85467J050335r53798o09156g45072A445380
1098A09095a507318J33762D77738J31587a264560E3751A193f07555a97150B30136
1087a535982p22806P56048f11685E52556i17910H13659O35058a88300q60684e07827
1076E12496K75953g02542j546530q97147Q32175Q98787j677599O81465b70591
1066F98214b50892j288335A423377N06456D90317h48541m62215f995p80727n87690
1056a375412O33820A560346g58234m03569H90895a024792P774A185975B75494
1046I9810L43136f76542j529439K04961b12719I63263B71300N30995i368m57802
1036d67170j281369j35570Q29752N19248E28482R9785f14599j443716N67544f54681
1025f18459l83204b62546B83507g89892c88691r79476q8302F02519f4077B46676
1014G52699a238086J05386A30190a475848K28110b92066k19696j52132j46200
1005h10094K16136B11991f12853G55898M34544e63248H75341R15354a086759L18401
995g68358p3054k49673L59843B123870A042351J36789N69867E28392j70934c23076
984b26147l99657A16224d87024m03147K75647j445100f92274r73772p02611h22935
973a426529L93332K04277r98772g10866G81897C3436a123579d99364j5647C82827
962d08036j41808j198957N21193n50745P80837A045961m62756e87332k0910b98980
951a461990J67197E85672c71120G69599b18219j568903j197766M86257A498827
941E52147a201793L92544n49246j390223h78103B43047G3201a736439J45587a32427
930G64338b60209A762512M98676D93533b175527h39543H55544M14607c35663A005525
919e44697j060149b93424I44356A89346a53921B072127B93609i48688a70992d9974
908a107131C22838J09036L87083J231316J341642H71768j92217a008244n27293
899a535537c47750l19282A3815Q19032c02489B98664A25556a47828k55914j707765
889b111507R53126n76534l30752g1791r5743o50178D33006A25230e44216k24055
879g68271E42749M49054E9355A5926L28472a315273j16403K12251A88002J702331
869A890333N11900j129158k31827f10378k14043A227605f6589j843323P78955
860a130957d27380C17098a030579N4508b84564e5467j59857F79327a381466e91965
849I06312d18887B02031h62676j557211h29637A248951L0114f2396D89653b55326
838B63493a530547h7296r52732p84850N83534A118785E08629f51922j211391M6153
828a817160j081501a446252b32364B69448L19503A6580a312139e15019p80644
819a295663f41312A530765A49225a084007n27064f47823K40385F85109C22379
809B98310i78669j866363M86293f38770l77483j157592N56664A14398J062770
800A177168A05783b09478E40607L74553c10109j01124l51370k14037b21552j368405
790a589957J36829C38997k2923a374505J41350j34963o17199P10832d94573K22601
780b71972m59852j38161C73449d44418j81972j704354N48027F42252h65605K2762
770h42843o4229n46304c66366A42017J192119D28701L05875q6840r4194a299301
759a144644n0138j71054O57896j215878i24476L87186j016045q3958G71985B07747
748e59812C43125O71917G4729a221034c8237B93701f26516q06878f17883a77026
737H06978J748981m57748I35125a161600K23573a69185k18600D1402M56520H8167
726i60502H10196O79311N173E67830c58610j093442h8219q93445a72210j44081
716c16291B50955a139057d38765m77523M09684j82229o98123m14211h97775B63976
705f7509n24827J4287J03749k81027a15797p99449m86329b31733A708743A75480
694C86718c50118j23684n45533j114471D64375B11249K49085i82935A200870a94299
683a690962N53832J83494A36842J960997E15693c72164m01058K50122B48040a082326
672a380571b47068k91946B62250J95225c17106j310448N33383d28730J30871B16884
661d33775R7647A078085m92735Q55359o41476A20585J00443J40584b49118j13850
651c62968D89216h9599q65163J85342J30456c11249I41554a60244C75031a896776
640b159397K71302Q61891k45696n7462E76946A23627i2685m21650K28627k79803
630e65511j491716j43052K73777r2211K90716p25475L840N08919J14001Q50121
620i76591r8318c69552k58610j013657p30103N71390L54518N64550M35564e4447
609A2949K47762M37441J258845k30337B06516f55304j88972A075469L81233C72503
598H69712b04919p38050e1326G62897J016052d08344j285772G01127a403162q64685
588b267847b47118g6695B51432K90545d66622A2804c46920A18483N77255N580
578G01318k66899h99059A051918L09320A89946d55976j546418d42759n89010J74460
568h57309l12881l49198d00309G02140e08216a06234C55157b22170C90450f28339
557a081563K41578o75553L63341e10052A25145c25835B09576f53192l5147i3073
546d20716n93745h263o70902r14634j72486p2126N58944I13045k11141P15760
536A417664A70024A9668a877395N48805A689902C15125d31644H04958f37415k2347
526f59762D16035g67126E72120N23869q7076E0675a124798P9929K17649O1932
516g65288h4904D30436R40382b06618A314770B66136P23634K02965m62922b84880
505a287018k9773c57172a03049j355483B77758K75997J140043M86J22274L03066
495B119624L3831p55858a023608K66683A53837Q55667B71145N54788O7504f64405
484B03692M00733K50576b43313j82899a57817j149343j809445a503161h9811o20473
474g10284k97762l89599G05740l12003N12085f34253l93719b96105k36759K29587
464c03277F1011a368140a13327A06366R99509D20929b47471F85170b862860a380953
453g28223k181923a303719B85647a431855J06746c30955E35644K74870c72241
443B57631p6555a78943C24143M20968f7810A00213K99860j8259a69853A04546
432B29159J06378d42507b2481F37976j55843Q471a04492A568732D57870R49090
422A406960K83615o69161H8198A8929a44482p66501j051958Q88457b80927F87
411a794773L22401D80394j21097F4560L96863b5025p01836K12920l64497M30520
401d47918A08426R5975i67569q1304M35355m64336M45091J8727K72053A6884f69715
389e774p65302E35824A72295J22013a28480F03720h30932n70494l81247g66766
378C92784h01180l16301J48522j27013o71869r984h33180m4667m50826j216741
368b545414h14192D38501e97381J78548A215483D48903i60093d07628N3362j19095
358d73361A050015C70729L79129C51058j16271i24320M23705h2617C78243A87268
347A337024D39507f25402C93178L20391o593a17523M6345q65397j04983K0445
337a021113c41291C34670b35679k23027q08505c16791k13818E31114e26845m78558
327a005403H70594i24476j932687a091341e38751d6966H92344a31141G54442O36099
317A390541a04056j6292G72573A79981a131958k834a95185O492B4803M24321R05065
306A354189H7686K70424b16869l15645i370G3321O16902f12521b61641q0947j936767
295b279355a24906k18812a44967j438464d33078a46387j79002q02665o34752A359273
284B254023a00470r35871J67005L31995j72034o97279M64911L07870K1083I13843
273F91747g04416l68520c68787j85220D78417A16395a271220j42182a71388G09545
262H9647f88031m63585d03232J04507k151I66670c10106j62894r11647m3477b16968
250I05557l70852Q43663o68450A25194f02068j9478j56346L16010C70723C9640
239b90514a35781k4103q92074K44780c46913A72278J70456f39150d7977O607C99504
227B11448a321434f8874m43845n77686q91497e05286C07027D1494a129850M74538
217f55312B78516L97869C05007i35304C9593J20188O59308e02986q75631n1917
207a430534e48007j240668e97359o45837H34N09947f39451b47547D90103g25067
196G13070J855854A072253l1443A84258c47031A90056J148001J8551n99665j59021
186E97922J95429B03140d26040j002299l05672o4391H62985K66538N5050k06141
176I78432m22424j43444h80238d18482c4187j252166b77278H4256J021552d42339
165a109605b13415H20237k09130e82119B55906p5615c88889j133618e39766f6736
154G56728o6372A91371f29121j231452j238549J517809e63283n04009e23445H3267
143b03473D04610g0326A092495L59801a27092o95893I81634a48861k028804i97896
132f79021H51093b23760q3122o43570g7492l27446a98211C56896e57030n88332
122a145362c91523J80235q56199D73275d10782a94003E70708A77876a197457D4718
111F11270d77095h1703G46106B47687f46155m47382b03384C18698J043620F31795
100G64673d14900a08061k09220J04811B26284Q34271A49621a72655O8839j138704
90a242520j06171L87715F85470Q11851F10865a49784A144275B80849e6122j26781
80a82903e5407B61952i23299F16414k16675a51841m40728b87247m55354J04084
70f38517J58147A180648O69642f6749E14444a01741H73072k82610a354187m57231
60a811418I7572K99383P71286r8586h14028c86135B56424C0545K92799P02939
50A026283k82472K4152B72546L3126N3656c26811H14680K26534j57119k92737
40E91358e54932a00948A80424a030183M77192q85726e61639m07012c19871M1175
30b78696i6382n95410L11010i5785A92139e13787p91194a72040q09400B5697J155263
19A180960b04888B1302N93873F8810e67247K81731m7893K8473h0644B42439j7849
8B24590J097233L31876A50926J1958f25763j210692O09065d83001
##END NTUPLES=NMR SPECTRUM
##END=
