##TITLE=
##JCAMPDX= 6.0         $$ Bruker NMR JCAMP-DX V2.0
##DATA TYPE= NMR SPECTRUM
##DATA CLASS= NTUPLES
##ORIGIN= Bruker BioSpin GmbH
##OWNER= nmrsu
##LONG DATE= 2023/09/23 18:49:39+0000
$$ TopSpin 4.1.4
$$ 2023-09-23 20:49:33.451 +0200  nmrsu@nmrf492r
$$ Compression mode = diff/dup
##.OBSERVE FREQUENCY= 100.6228302769
##.OBSERVE NUCLEUS= ^13C
##.ACQUISITION MODE= SIMULTANEOUS (DQD)
##.ACQUISITION SCHEME= undefined
##.AVERAGES= 256
##.DIGITISER RES= 32
##SPECTROMETER/DATA SYSTEM= AV4 400 MHZ
##.PULSE SEQUENCE= zg30
##.SOLVENT NAME= CDCl3
##.SHIFT REFERENCE= INTERNAL, CDCl3, 1, 218.3226
##AUDIT TRAIL= $$ (NUMBER, WHEN, WHO, WHERE, PROCESS, VERSION, WHAT)
$$ ##TITLE= Audit trail, TopSpin 4.1.4
$$ ##JCAMPDX= 5.01
$$ ##ORIGIN= Bruker BioSpin GmbH
$$ ##OWNER= nmrsu
$$ $$ /opt/data/apprentis.isic@epfl.ch/nmr/aafbf003b303_reference_62-53-3/1/pdata/1/auditp.txt
$$ ##AUDIT TRAIL=  $$ (NUMBER, WHEN, WHO, WHERE, PROCESS, VERSION, WHAT)
(   1,<2023-09-23 18:34:51.701 +0000>,<nmrsu>,<nmrf492r>,<go4>,<TopSpin 4.1.4>,
      <acquisition in progress>)
$$ $$ /opt/data/apprentis.isic@epfl.ch/nmr/aafbf003b303_reference_62-53-3/1/audita.txt
(   2,<2023-09-23 18:49:40.243 +0000>,<nmrsu>,<nmrf492r>,<go4>,<TopSpin 4.1.4>,
      <created by zg on 'AV4 400 MHZ' (nmrf492r) by user 'nmrsu'
       on data set with UUID 'e2012266-5a3f-11ee-a02f-00139526683c'
       started at 2023-09-23 18:34:51.711 +0000, POWCHK enabled, PULCHK disabled,
       completed at 2023-09-23 18:49:40.240 +0000
       configuration hash MD5:
       CD 8D D6 62 70 46 CF 44 22 D8 1D DE BA 17 57 A5
       double data hash MD5: 64K
       17 67 6D A2 CE FE 8E 3C 67 AA A4 42 AC AB 6F 5D>)
(   3,<2023-09-23 20:49:30.943 +0200>,<nmrsu>,<nmrf492r>,<xwish3>,<TopSpin 4.1.4>,
      <ICON-NMR User ID: apprentis.isic@epfl.ch
       double data hash MD5: 64K
       17 67 6D A2 CE FE 8E 3C 67 AA A4 42 AC AB 6F 5D>)
(   4,<2023-09-23 20:49:32.871 +0200>,<nmrsu/apprentis.isic@epfl.ch>,<nmrf492r>,<proc1d>,<TopSpin 4.1.4>,
      <Start of raw data processing
       ef LB = 0.3 FT_mod = 6 PKNL = 1 SI = 64K 
       data hash MD5: 64K
       E6 9D 0F A7 09 CA 33 C0 FA 31 1C 0E B3 7C F3 2A>)
(   5,<2023-09-23 20:49:33.226 +0200>,<nmrsu/apprentis.isic@epfl.ch>,<nmrf492r>,<proc1d>,<TopSpin 4.1.4>,
      <apk0 
       data hash MD5: 64K
       1C D8 51 83 A0 EF 34 8F 46 08 C8 27 A3 B5 DA E0>)
(   6,<2023-09-23 20:49:33.286 +0200>,<nmrsu/apprentis.isic@epfl.ch>,<nmrf492r>,<proc1d>,<TopSpin 4.1.4>,
      <abs ABSG = 5 
       data hash MD5: 64K
       96 F2 4C 0C 8B FE 12 E4 D7 2E 4D EF F7 AE 5F 43>)
(   7,<2023-09-23 20:49:33.309 +0200>,<nmrsu/apprentis.isic@epfl.ch>,<nmrf492r>,<peak>,<TopSpin 4.1.4>,
      <1D Peak picking
       data hash MD5: 64K
       96 F2 4C 0C 8B FE 12 E4 D7 2E 4D EF F7 AE 5F 43>)
(   8,<2023-09-23 20:49:33.360 +0200>,<nmrsu/apprentis.isic@epfl.ch>,<nmrf492r>,<xwish3>,<TopSpin 4.1.4>,
      <ICON-NMR User ID: apprentis.isic@epfl.ch
       data hash MD5: 64K
       96 F2 4C 0C 8B FE 12 E4 D7 2E 4D EF F7 AE 5F 43>)
$$ ##END=
$$ 
$$ $$ hash MD5
$$ $$ 19 DE E7 9B 39 BC 67 A8 8A DC E9 B0 E6 4A 99 78
##$RELAX= 
##$BRUKER FILE EXP=format.temp
$$ EDIT_PAR COMMAND FILE
$$ 
$$ DI_MODE         LONG
$$ ED_ENTRY        ACQU
$$ ORDER           FILE
$$ 
$$ 
$$ HEADER		"F2 - Acquisition Parameters"
$$ T_NAME		Date_
$$ 		TYPE	R64
$$ 		CLASS	ACQU
$$ 		SUBRANGE 0.0 50000000
$$ 		REL	"Date_=itodate(DATE)"
$$ 		INV_REL	"DATE=datetoi(Date_,DATE)"
$$ 		FORMAT	"%14.0f"
$$ 		TEXT	" "
$$ END
$$ T_NAME		Time
$$ 		TYPE	R32
$$ 		CLASS	ACQU
$$ 		SUBRANGE 0.0 1000000
$$ 		REL	"Time=itotime(DATE)"
$$ 		INV_REL	"DATE=timetoi(Time,DATE)"
$$ 		FORMAT	"%14.2f h"
$$ 		TEXT	" "
$$ END
$$ NAME		INSTRUM
$$ 		TEXT	" "
$$ END
$$ NAME		PROBHD
$$ 		FORMAT	"%14.14s"
$$ 		TEXT	" "
$$ END
$$ NAME		PULPROG
$$ 		TEXT	" "
$$ END
$$ NAME		TD
$$ 		TEXT	" "
$$ END
$$ NAME		SOLVENT
$$ 		TEXT	" "
$$ END
$$ NAME		NS
$$ 		TEXT	" "
$$ END
$$ NAME		DS
$$ 		TEXT	" "
$$ END
$$ T_NAME		SWH
$$ 		TYPE	R32
$$ 		CLASS	ACQU
$$ 		SUBRANGE 0.0 1e8
$$ 		REL	"SWH=SW*SFO1"
$$ 		INV_REL "SW=SWH/SFO1"
$$ 		UNIT	"Hz"
$$ 		FORMAT	"%14.3f Hz"
$$ 		TEXT	" "
$$ END
$$ T_NAME          FIDRES
$$                 TYPE    R32
$$                 CLASS   ACQU
$$                 SUBRANGE 0.0 100000
$$                 REL     "FIDRES=2*SW*SFO1/TD"
$$                 INV_REL "TD = nextpow(2*SW*SFO1/FIDRES)"
$$ 		UNIT	"Hz"
$$ 		FORMAT	"%14.6f Hz"
$$ 		TEXT	" "
$$ END
$$ T_NAME          AQ
$$ 		TYPE	R32
$$ 		CLASS	ACQU
$$ 		SUBRANGE 0.0 1000
$$ 		REL	"AQ=aqcalc(SW,SFO1,TD,DIGTYP)"
$$ 		INV_REL	"TD=tdcalc(SW,SFO1,1.0e6*AQ,DIGTYP)"
$$ 		UNIT	"sec"
$$ 		FORMAT	"%14.7f sec"
$$ 		TEXT	" "
$$ END
$$ NAME		RG
$$ 		TEXT	" "
$$ END
$$ T_NAME          DW
$$ 		TYPE	R32
$$ 		CLASS	ACQU
$$ 		SUBRANGE 0.0 1000000
$$ 		REL	"DW=1/(2*SW*SFO1)"
$$ 		INV_REL	"SW=1000000/(2*(0.005+DW)*SFO1)"
$$ 		UNIT	"usec"
$$ 		FORMAT	"%14.3lf usec"
$$ 		TEXT	" "
$$ END
$$ NAME		DE
$$ 		FORMAT	"%14.2f usec"
$$ 		TEXT	" "
$$ END
$$ NAME		TE
$$ 		FORMAT	"%14.1f K"
$$ 		TEXT	" "
$$ END
$$ T_NAME		D1
$$ TYPE	R32
$$ CLASS	ACQU
$$ SUBRANGE 0.0 1e38
$$ REL	"D1=D[1]"
$$ INV_REL	"D[1]=D1"
$$ UNIT	"sec"
$$ FORMAT	"%14.8f sec"
$$ TEXT	" "
$$ END
$$ NAME		TD0
$$ 		TEXT	" "
$$ END
$$ NAME		SFO1
$$ FORMAT	"%14.7f MHz"
$$ TEXT	" "
$$ END
$$ NAME		NUC1
$$ NONEDIT
$$ TEXT	" "
$$ END
$$ T_NAME		P0
$$ TYPE	R32
$$ CLASS	ACQU
$$ SUBRANGE 0.0 1.0e10
$$ REL	"P0=P[0]"
$$ INV_REL	"P[0]=P0"
$$ UNIT	"usec"
$$ FORMAT	"%14.2f usec"
$$ TEXT	" "
$$ END
$$ T_NAME		P1
$$ TYPE	R32
$$ CLASS	ACQU
$$ SUBRANGE 0.0 1.0e10
$$ REL	"P1=P[1]"
$$ INV_REL	"P[1]=P1"
$$ UNIT	"usec"
$$ FORMAT	"%14.2f usec"
$$ TEXT	" "
$$ END
$$ T_NAME		PLW1
$$ TYPE	R32
$$ CLASS	ACQU
$$ REL	"PLW1=PLW[1]"
$$ INV_REL	"PLW[1]=PLW1"
$$ UNIT	"W"
$$ FORMAT	"%14.8f W"
$$ TEXT	"power PLW1 "
$$ END
##$RELAX= 
##$BRUKER FILE EXP=scon2
$$ ##TITLE= Parameter file, TopSpin 4.1.4
$$ ##JCAMPDX= 5.0
$$ ##DATATYPE= Parameter Values
$$ ##NPOINTS= 1	$$ modification sequence number
$$ ##ORIGIN= Bruker BioSpin GmbH
$$ ##OWNER= nmrsu
$$ $$ 2023-09-23 20:34:42.197 +0200  nmrsu@nmrf492r
$$ $$ /opt/data/apprentis.isic@epfl.ch/nmr/aafbf003b303_reference_62-53-3/1/scon2
$$ $$ process /opt/topspin4.1.4/prog/mod/acqdataserver
$$ ##$BLKTR= (0..32)
$$ 3 3 3 3 3 3 3 3 3 3 3 3 3 3 3 3 3 3 3 3 3 3 3 3 3 3 3 3 3 3 3 3 3
$$ ##$DE1= 4.5
$$ ##$DEADC= 0.5
$$ ##$DEPA= 4.5
$$ ##$DERX= 1.5
$$ ##$GRADPRE= (0..1)
$$ 10 10
$$ ##$HD_BLKTR= (0..32)
$$ 1 1 1 1 1 1 1 1 1 1 1 1 1 1 1 1 1 1 1 1 1 1 1 1 1 1 1 1 1 1 1 1 1
$$ ##$HD_DE1= 5
$$ ##$HD_DEADC= 0
$$ ##$HD_DEPA= 2.5
$$ ##$HD_DERX= 0
$$ ##END=
##$RELAX= 
##$BRUKER FILE EXP=prosol_History
##$RELAX= 
##$BRUKER FILE EXP=shimvalues
$$ # Sat Sep 23 18:49:39 2023
$$ #$$PROBEIDENTIFIER=Z108618_0808
$$ #$$PROBENAME=PA BBO 400S1 BBF-H-D-05 Z
$$ #$$SHIMID=313232
$$ #
$$ # Active Shim Gradients
$$ #
$$ Z           		8694            
$$ Z2          		4513            
$$ Z3          		-921            
$$ Z4          		-7443           
$$ Z5          		4432            
$$ Z6          		23290           
$$ X           		-10762          
$$ XZ          		-1407           
$$ XZ2         		-800            
$$ XZ3         		2230            
$$ Y           		3513            
$$ YZ          		19923           
$$ YZ2         		27262           
$$ YZ3         		-7930           
$$ XY          		-612            
$$ XYZ         		10082           
$$ (X2-Y2)     		-22912          
$$ (X2-Y2)Z    		8771            
$$ X3          		-1763           
$$ Y3          		2664            
$$ #
$$ # Lock Parameter
$$ #
$$ FIELD		6746.333
$$ LOCKPHASE		 341.100
$$ LOCKPOWER		 -30.000
$$ LOCKGAIN		 127.712
$$ LOCKDC		 -75.000
$$ LOCKSHIFT		   7.240
$$ LOOPGAIN		 -12.000
$$ LOOPTIME		   0.400
$$ LOOPFILTER		 100.000
$$ #
$$ IEEE64_VERSION_CODE 1
$$ #
$$ # Shim currents 
$$ #
$$ SHIM_SETTING [ 1]     4216.48198332
$$ SHIM_SETTING [ 2]     2233.86395918
$$ SHIM_SETTING [ 3]     -484.50628064
$$ SHIM_SETTING [ 4]    -3914.86461097
$$ SHIM_SETTING [ 5]     2331.35783621
$$ SHIM_SETTING [ 6]    -5660.81199994
$$ SHIM_SETTING [ 7]     -740.08199999
$$ SHIM_SETTING [ 8]     -420.80000000
$$ SHIM_SETTING [ 9]   -12051.71199987
$$ SHIM_SETTING [10]     -321.91200000
$$ SHIM_SETTING [11]     1847.83799998
$$ SHIM_SETTING [12]    10479.49799988
$$ SHIM_SETTING [13]    14339.81199984
$$ SHIM_SETTING [14]    -4171.18099995
$$ SHIM_SETTING [15]    12250.47637676
$$ SHIM_SETTING [16]     4613.28699995
$$ SHIM_SETTING [17]     1173.08999999
$$ SHIM_SETTING [18]     5303.07899994
$$ SHIM_SETTING [19]     -927.57899999
$$ SHIM_SETTING [20]     1401.22599998
##$RELAX= 
##$BRUKER FILE EXP=uxnmr.par
$$ ##TITLE= Parameter file, TopSpin 4.1.4
$$ ##JCAMPDX= 5.0
$$ ##DATATYPE= Parameter Values
$$ ##NPOINTS= 2	$$ modification sequence number
$$ ##ORIGIN= Bruker BioSpin GmbH
$$ ##OWNER= root
$$ $$ 2022-02-07 06:59:35.571 +0000  root@BladeEpu
$$ $$ /opt/topspin/conf/instr/spect/uxnmr.par
$$ $$ process /opt/topspin/prog/mod/hconfserver
$$ ##$ACBTAT= (0..64)
$$ 0 66 72 50 0 0 0 0 0 0 0 0 0 0 0 0 0 0 0 0 0 0 0 0 0 0 0 0 0 0 0 0 0 0
$$ 0 0 0 0 0 0 0 0 0 0 0 0 0 0 0 0 0 0 0 0 0 0 0 0 0 0 0 0 0 0 0
$$ ##$ACBTBLK= (0..64)
$$ 0 34 33 41 0 0 0 0 0 0 0 0 0 0 0 0 0 0 0 0 0 0 0 0 0 0 0 0 0 0 0 0 0 0
$$ 0 0 0 0 0 0 0 0 0 0 0 0 0 0 0 0 0 0 0 0 0 0 0 0 0 0 0 0 0 0 0
$$ ##$ACBTCTL= (0..64)
$$ 0 6 6 6 0 0 0 0 0 0 0 0 0 0 0 0 0 0 0 0 0 0 0 0 0 0 0 0 0 0 0 0 0 0 0 0
$$ 0 0 0 0 0 0 0 0 0 0 0 0 0 0 0 0 0 0 0 0 0 0 0 0 0 0 0 0 0
$$ ##$ACBTDI= (0..64)
$$ 0 -1062706420 -1062706420 -1062706421 0 0 0 0 0 0 0 0 0 0 0 0 0 0 0 0 0
$$ 0 0 0 0 0 0 0 0 0 0 0 0 0 0 0 0 0 0 0 0 0 0 0 0 0 0 0 0 0 0 0 0 0 0 0 0
$$ 0 0 0 0 0 0 0 0
$$ ##$ACBTDM= (0..64)
$$ 0 10 25 10 0 0 0 0 0 0 0 0 0 0 0 0 0 0 0 0 0 0 0 0 0 0 0 0 0 0 0 0 0 0
$$ 0 0 0 0 0 0 0 0 0 0 0 0 0 0 0 0 0 0 0 0 0 0 0 0 0 0 0 0 0 0 0
$$ ##$ACBTFHI= (0..64)
$$ 0 600 600 62 0 0 0 0 0 0 0 0 0 0 0 0 0 0 0 0 0 0 0 0 0 0 0 0 0 0 0 0 0
$$ 0 0 0 0 0 0 0 0 0 0 0 0 0 0 0 0 0 0 0 0 0 0 0 0 0 0 0 0 0 0 0 0
$$ ##$ACBTFL= (0..64)
$$ 0 248 248 8 0 0 0 0 0 0 0 0 0 0 0 0 0 0 0 0 0 0 0 0 0 0 0 0 0 0 0 0 0 0
$$ 0 0 0 0 0 0 0 0 0 0 0 0 0 0 0 0 0 0 0 0 0 0 0 0 0 0 0 0 0 0 0
$$ ##$ACBTFLO= (0..64)
$$ 0 15 180 60 0 0 0 0 0 0 0 0 0 0 0 0 0 0 0 0 0 0 0 0 0 0 0 0 0 0 0 0 0 0
$$ 0 0 0 0 0 0 0 0 0 0 0 0 0 0 0 0 0 0 0 0 0 0 0 0 0 0 0 0 0 0 0
$$ ##$ACBTINP= (0..64)
$$ 0 2 1 9 0 0 0 0 0 0 0 0 0 0 0 0 0 0 0 0 0 0 0 0 0 0 0 0 0 0 0 0 0 0 0 0
$$ 0 0 0 0 0 0 0 0 0 0 0 0 0 0 0 0 0 0 0 0 0 0 0 0 0 0 0 0 0
$$ ##$ACBTOUT= (0..64)
$$ 0 0 3 1 0 0 0 0 0 0 0 0 0 0 0 0 0 0 0 0 0 0 0 0 0 0 0 0 0 0 0 0 0 0 0 0
$$ 0 0 0 0 0 0 0 0 0 0 0 0 0 0 0 0 0 0 0 0 0 0 0 0 0 0 0 0 0
$$ ##$ACBTPO= (0..64)
$$ 0 500000 100000 5000 0 0 0 0 0 0 0 0 0 0 0 0 0 0 0 0 0 0 0 0 0 0 0 0 0
$$ 0 0 0 0 0 0 0 0 0 0 0 0 0 0 0 0 0 0 0 0 0 0 0 0 0 0 0 0 0 0 0 0 0 0 0 0
$$ ##$ACBTPW= (0..64)
$$ 0 100 100 1000 0 0 0 0 0 0 0 0 0 0 0 0 0 0 0 0 0 0 0 0 0 0 0 0 0 0 0 0
$$ 0 0 0 0 0 0 0 0 0 0 0 0 0 0 0 0 0 0 0 0 0 0 0 0 0 0 0 0 0 0 0 0 0
$$ ##$ACBTSB= (0..64)
$$ 0 8227 8260 0 0 0 0 0 0 0 0 0 0 0 0 0 0 0 0 0 0 0 0 0 0 0 0 0 0 0 0 0 0
$$ 0 0 0 0 0 0 0 0 0 0 0 0 0 0 0 0 0 0 0 0 0 0 0 0 0 0 0 0 0 0 0 0
$$ ##$ACBTSDT= (0..64)
$$ 0 2 2 2 0 0 0 0 0 0 0 0 0 0 0 0 0 0 0 0 0 0 0 0 0 0 0 0 0 0 0 0 0 0 0 0
$$ 0 0 0 0 0 0 0 0 0 0 0 0 0 0 0 0 0 0 0 0 0 0 0 0 0 0 0 0 0
$$ ##$AMPDFLT= no
$$ ##$AdmCrpWbWiring= (0..1)
$$ 0 0
$$ ##$AppEth= <no>
$$ ##$AppPort= <no>
$$ ##$BACSAIR= yes
$$ ##$BACSCAP= 0
$$ ##$BACSDEL= 10
$$ ##$BACSFCM= no
$$ ##$BACSOPT= <>
$$ ##$BACSTY= <no>
$$ ##$BFREQ= 400.13
$$ ##$BGAETH= (0..9)
$$ <no> <no> <no> <no> <no> <no> <no> <no> <no> <no>
$$ ##$BIRDS= yes
$$ ##$BMPC= 0
$$ ##$BMPCTY= <no>
$$ ##$BPSUTY= <no>
$$ ##$BSAETH= (0..9)
$$ <no> <no> <no> <no> <no> <no> <no> <no> <no> <no>
$$ ##$BSMS= 2
$$ ##$BSMS19FLock= no
$$ ##$BSMSETH= <192.168.99.11>
$$ ##$BgaChFac2= (0..9)
$$ 0 0 0 0 0 0 0 0 0 0
$$ ##$BgaChMap= (0..9)
$$ 0 0 0 0 0 0 0 0 0 0
$$ ##$BgaChMaxv= (0..9)
$$ 0 0 0 0 0 0 0 0 0 0
$$ ##$BgaChRouting= (0..63)
$$ 0 0 0 0 0 0 0 0 0 0 0 0 0 0 0 0 0 0 0 0 0 0 0 0 0 0 0 0 0 0 0 0 0 0 0 0
$$ 0 0 0 0 0 0 0 0 0 0 0 0 0 0 0 0 0 0 0 0 0 0 0 0 0 0 0 0
$$ ##$BgaChShimMap= (0..9)
$$ 0 0 0 0 0 0 0 0 0 0
$$ ##$BgaChShimMaxv= (0..9)
$$ 0 0 0 0 0 0 0 0 0 0
$$ ##$BlaEth= (0..31)
$$ <192.168.99.12> <192.168.99.11> <no> <no> <no> <no> <no> <no> <no> <no>
$$ <no> <no> <no> <no> <no> <no> <no> <no> <no> <no> <no> <no> <no> <no> <no>
$$ <no> <no> <no> <no> <no> <no> <no>
$$ ##$BlaHpLpViaTTL= (0..31)
$$ 0 0 0 0 0 0 0 0 0 0 0 0 0 0 0 0 0 0 0 0 0 0 0 0 0 0 0 0 0 0 0 0
$$ ##$BlaNam= (0..31)
$$ <AV4 BLABBH500/100 200-600> <BSMS/2 LOCK TRANSCEIVER 400> <> <> <> <> <>
$$ <> <> <> <> <> <> <> <> <> <> <> <> <> <> <> <> <> <> <> <> <> <> <> <>
$$ <>
$$ ##$BlaPN= (0..31)
$$ <W144061> <Z109888> <> <> <> <> <> <> <> <> <> <> <> <> <> <> <> <> <>
$$ <> <> <> <> <> <> <> <> <> <> <> <> <>
$$ ##$BlaSN= (0..31)
$$ <000093> <02329> <> <> <> <> <> <> <> <> <> <> <> <> <> <> <> <> <> <>
$$ <> <> <> <> <> <> <> <> <> <> <> <>
$$ ##$BmuEth= <no>
$$ ##$BmuFw= <no>
$$ ##$BmuPn= <no>
$$ ##$BmuSn= <no>
$$ ##$BnlEth= <no>
$$ ##$BnlFw= <no>
$$ ##$BnlPn= <no>
$$ ##$BnlSn= <no>
$$ ##$BpduEth= (0..7)
$$ <no> <no> <no> <no> <no> <no> <no> <no>
$$ ##$BsaChMap1= (0..9)
$$ 0 0 0 0 0 0 0 0 0 0
$$ ##$BsaChMap2= (0..9)
$$ 0 0 0 0 0 0 0 0 0 0
$$ ##$BsaChShimMaxv= (0..9)
$$ 0 0 0 0 0 0 0 0 0 0
$$ ##$BsmsAuxEth= <no>
$$ ##$BsmsLockNuclei= (0..15)
$$ <2H> <no> <no> <no> <no> <no> <no> <no> <no> <no> <no> <no> <no> <no> <no>
$$ <no>
$$ ##$CPDBTY= <no>
$$ ##$CRCOTY= <no>
$$ ##$CSW1= (0..31)
$$ 2 1 9 0 0 0 0 0 0 0 0 0 0 0 0 0 0 0 0 0 0 0 0 0 0 0 0 0 0 0 0 0
$$ ##$CSW2= (0..31)
$$ 0 0 0 0 0 0 0 0 0 0 0 0 0 0 0 0 0 0 0 0 0 0 0 0 0 0 0 0 0 0 0 0
$$ ##$CSWNUM= (0..15)
$$ 2 1 0 0 0 0 0 0 0 0 0 0 0 0 0 0
$$ ##$ConsolePnSn= <HCAB-40 / 57>
$$ ##$CryoCoolUnitEth= <no>
$$ ##$CryoCoolUnitFw= <no>
$$ ##$CryoCoolUnitPn= <no>
$$ ##$CryoCoolUnitSn= <no>
$$ ##$CryoProAccPnSn= <>
$$ ##$Ctb1Eth= <no>
$$ ##$CustRegisterNo= <>
$$ ##$DATSTAT= no
$$ ##$DPPFAC= 1
$$ ##$DRU= no
$$ ##$DateTimeCreated= <2022-02-07T06:58:43+0000>
$$ ##$Description= <AV4 400 MHZ>
$$ ##$DppType= 0
$$ ##$DrxFiltGrpDel= (0..23)
$$ <68,36,20,9,5,3,2> <68,36,20,9,5,3,2> <> <> <> <> <> <> <> <> <> <> <>
$$ <> <> <> <> <> <> <> <> <> <> <>
$$ ##$EcuType= 1
$$ ##$EpuMacAddress= <00:13:95:26:68:3c>
$$ ##$FCubeDrxDevice= (0..23)
$$ </dev/bbu/drx3.5> </dev/bbu/drx4.5> <> <> <> <> <> <> <> <> <> <> <> <>
$$ <> <> <> <> <> <> <> <> <> <>
$$ ##$FCubeEth= (0..23)
$$ <192.168.180.14> <192.168.180.18> <no> <no> <no> <no> <no> <no> <no> <no>
$$ <no> <no> <no> <no> <no> <no> <no> <no> <no> <no> <no> <no> <no> <no>
$$ ##$FCubeRtdDevice= (0..23)
$$ </dev/bbu/rtd3.4> </dev/bbu/rtd4.4> <> <> <> <> <> <> <> <> <> <> <> <>
$$ <> <> <> <> <> <> <> <> <> <>
$$ ##$FCubeSeqDevice= (0..23)
$$ <> <> <> <> <> <> <> <> <> <> <> <> <> <> <> <> <> <> <> <> <> <> <> <>
$$ ##$FGSVTY= <no>
$$ ##$FRONTTY= <no>
$$ ##$FUNCMOD= <>
$$ ##$FourPeriBdEth= <no>
$$ ##$FourShimBdEth= <no>
$$ ##$FourierPicsCon= no
$$ ##$FuncModBisDat= (0..7)
$$ 0 0 0 0 0 0 0 0
$$ ##$FuncModFRange= (0..7)
$$ <> <> <> <> <> <> <> <>
$$ ##$FuncModPN= (0..7)
$$ <> <> <> <> <> <> <> <>
$$ ##$FuncModSN= (0..7)
$$ <> <> <> <> <> <> <> <>
$$ ##$GCUTYPE= 20
$$ ##$GCubeEth= <192.168.180.38>
$$ ##$GCubeFpfAddr= (0..9)
$$ -1 -1 -1 -1 -1 -1 -1 -1 -1 -1
$$ ##$GCubeProcDevice= (0..1)
$$ </dev/bbu/gproc9.7> <no>
$$ ##$GCubeRtdDevice= (0..1)
$$ </dev/bbu/rtd9.4> <no>
$$ ##$GCubeSeqDevice= (0..1)
$$ <> <>
$$ ##$GCubeSpfAddr= (0..63)
$$ -1 -1 -1 -1 -1 -1 -1 -1 -1 -1 -1 -1 -1 -1 -1 -1 -1 -1 -1 -1 -1 -1 -1 -1
$$ -1 -1 -1 -1 -1 -1 -1 -1 -1 -1 -1 -1 -1 -1 -1 -1 -1 -1 -1 -1 -1 -1 -1 -1
$$ -1 -1 -1 -1 -1 -1 -1 -1 -1 -1 -1 -1 -1 -1 -1 -1
$$ ##$GPREDEL= 0
$$ ##$GPSCUTY= <no>
$$ ##$GRADRES= 1
$$ ##$Gctu2Eth= <no>
$$ ##$GcubeSaCtrEth= <no>
$$ ##$GradAmpMaxCurX= (0..10)
$$ 0 0 0 0 0 0 0 0 0 0 0
$$ ##$GradAmpMaxCurY= (0..10)
$$ 0 0 0 0 0 0 0 0 0 0 0
$$ ##$GradAmpMaxCurZ= (0..10)
$$ 9.99999904632568 0 0 0 0 0 0 0 0 0 0
$$ ##$GradAmpName= (0..9)
$$ <GAB in BSMS> <> <> <> <> <> <> <> <> <>
$$ ##$GradAmpPN= (0..9)
$$ <> <> <> <> <> <> <> <> <> <>
$$ ##$GradAmpSN= (0..9)
$$ <> <> <> <> <> <> <> <> <> <>
$$ ##$GradAmpType= (0..10)
$$ 2 0 0 0 0 0 0 0 0 0 0
$$ ##$GradPowClkTime= (0..9)
$$ 0 0 0 0 0 0 0 0 0 0
$$ ##$GradPowIcw= (0..9)
$$ 0 0 0 0 0 0 0 0 0 0
$$ ##$GradPowImax= (0..9)
$$ 0 0 0 0 0 0 0 0 0 0
$$ ##$GradPowType= (0..9)
$$ 0 0 0 0 0 0 0 0 0 0
$$ ##$GradPowVmax= (0..9)
$$ 0 0 0 0 0 0 0 0 0 0
$$ ##$HPTXLP= (0..3)
$$ -1 -1 -1 -1
$$ ##$HPTXPI= (0..3)
$$ 0 0 0 0
$$ ##$HPTXPO= (0..3)
$$ 0 0 0 0
$$ ##$HPTXTY= (0..3)
$$ 0 0 0 0
$$ ##$HpprCoverType= 2
$$ ##$IPSOTYPE= 0
$$ ##$LDUETH= <no>
$$ ##$LOCKCONF= <DLM>
$$ ##$LOCSWID= 0
$$ ##$LOCSWIF= 0
$$ ##$Location= <>
$$ ##$LtMasEth= <no>
$$ ##$LtMasType= 0
$$ ##$MAS= 0
$$ ##$MASETIME= 10
$$ ##$MASITIME= 10
$$ ##$MASTY= <no>
$$ ##$MAS_CT= 5
$$ ##$MAS_SG= 0
$$ ##$MAS_TO= 0
$$ ##$MagnCoilPnSn= <BZH0104070I02>
$$ ##$MagnDewarPnSn= <D325-54-6794>
$$ ##$MagnetPolarity= 1
$$ ##$MasEth= <no>
$$ ##$NAMPD= (0..32)
$$ <> <HPLNA 19F1H> <2H> <XBB19F 2HP> <> <> <> <> <> <> <> <> <> <> <> <>
$$ <> <> <> <> <> <> <> <> <> <> <> <> <> <> <> <> <>
$$ ##$NFCU= 2
$$ ##$NRCU= 2
$$ ##$NROUT= 0
$$ ##$NSGU= 2
$$ ##$NumActDetuneCtr= 0
$$ ##$NumVpu= 0
$$ ##$OrderNo= <HCAB-40_00057>
$$ ##$POWCHK= yes
$$ ##$PRAMD1= (0..7)
$$ 6 0 0 1610612736 0 0 0 0
$$ ##$PRAMD10= (0..7)
$$ 0 0 0 0 0 0 0 0
$$ ##$PRAMD11= (0..7)
$$ 0 0 0 0 0 0 0 0
$$ ##$PRAMD12= (0..7)
$$ 0 0 0 0 0 0 0 0
$$ ##$PRAMD13= (0..7)
$$ 0 0 0 0 0 0 0 0
$$ ##$PRAMD14= (0..7)
$$ 0 0 0 0 0 0 0 0
$$ ##$PRAMD15= (0..7)
$$ 0 0 0 0 0 0 0 0
$$ ##$PRAMD16= (0..7)
$$ 0 0 0 0 0 0 0 0
$$ ##$PRAMD17= (0..7)
$$ 0 0 0 0 0 0 0 0
$$ ##$PRAMD18= (0..7)
$$ 0 0 0 0 0 0 0 0
$$ ##$PRAMD19= (0..7)
$$ 0 0 0 0 0 0 0 0
$$ ##$PRAMD2= (0..7)
$$ 0 1048576 0 536870912 0 1048576 0 536870912
$$ ##$PRAMD20= (0..7)
$$ 0 0 0 0 0 0 0 0
$$ ##$PRAMD21= (0..7)
$$ 0 0 0 0 0 0 0 0
$$ ##$PRAMD22= (0..7)
$$ 0 0 0 0 0 0 0 0
$$ ##$PRAMD23= (0..7)
$$ 0 0 0 0 0 0 0 0
$$ ##$PRAMD24= (0..7)
$$ 0 0 0 0 0 0 0 0
$$ ##$PRAMD25= (0..7)
$$ 0 0 0 0 0 0 0 0
$$ ##$PRAMD26= (0..7)
$$ 0 0 0 0 0 0 0 0
$$ ##$PRAMD27= (0..7)
$$ 0 0 0 0 0 0 0 0
$$ ##$PRAMD28= (0..7)
$$ 0 0 0 0 0 0 0 0
$$ ##$PRAMD29= (0..7)
$$ 0 0 0 0 0 0 0 0
$$ ##$PRAMD3= (0..7)
$$ 2147483644 2147483647 2147483647 603979775 0 0 0 0
$$ ##$PRAMD30= (0..7)
$$ 0 0 0 0 0 0 0 0
$$ ##$PRAMD31= (0..7)
$$ 0 0 0 0 0 0 0 0
$$ ##$PRAMD32= (0..7)
$$ 0 0 0 0 0 0 0 0
$$ ##$PRAMD4= (0..7)
$$ 0 0 0 0 0 0 0 0
$$ ##$PRAMD5= (0..7)
$$ 0 0 0 0 0 0 0 0
$$ ##$PRAMD6= (0..7)
$$ 0 0 0 0 0 0 0 0
$$ ##$PRAMD7= (0..7)
$$ 0 0 0 0 0 0 0 0
$$ ##$PRAMD8= (0..7)
$$ 0 0 0 0 0 0 0 0
$$ ##$PRAMD9= (0..7)
$$ 0 0 0 0 0 0 0 0
$$ ##$PRAMLED= (0..1)
$$ 0 0
$$ ##$PRAMP= (0..9)
$$ <no> <no> <no> <no> <no> <no> <no> <no> <no> <no>
$$ ##$PRAMPTP= 1
$$ ##$PREEMPTYPE= 0
$$ ##$PREREC= (0..31)
$$ 1 1 2 0 0 0 0 0 0 0 0 0 0 0 0 0 0 0 0 0 0 0 0 0 0 0 0 0 0 0 0 0
$$ ##$PTSFMX= (0..23)
$$ 1290 1290 0 0 0 0 0 0 0 0 0 0 0 0 0 0 0 0 0 0 0 0 0 0
$$ ##$PULCHK= no
$$ ##$PduEth= (0..7)
$$ <192.168.99.99> <no> <no> <no> <no> <no> <no> <no>
$$ ##$PerMagATempSens= no
$$ ##$PerMagEth= <no>
$$ ##$PerMagFluxSens= no
$$ ##$PerMagMTempSens= no
$$ ##$PramDutyCycPerc= (0..31)
$$ 4 2 2 0 0 0 0 0 0 0 0 0 0 0 0 0 0 0 0 0 0 0 0 0 0 0 0 0 0 0 0 0
$$ ##$PramPPowNucW1= (0..127)
$$ <> <> <> <> <> <> <> <> <> <> <> <> <> <> <> <> <> <> <> <> <> <> <> <>
$$ <> <> <> <> <> <> <> <> <> <> <> <> <> <> <> <> <> <> <> <> <> <> <> <>
$$ <> <> <> <> <> <> <> <> <> <> <> <> <> <> <> <> <> <> <> <> <> <> <> <>
$$ <> <> <> <> <> <> <> <> <> <> <> <> <> <> <> <> <> <> <> <> <> <> <> <>
$$ <> <> <> <> <> <> <> <> <> <> <> <> <> <> <> <> <> <> <> <> <> <> <> <>
$$ <> <> <> <> <> <> <> <>
$$ ##$PramPPowNucW10= (0..127)
$$ <> <> <> <> <> <> <> <> <> <> <> <> <> <> <> <> <> <> <> <> <> <> <> <>
$$ <> <> <> <> <> <> <> <> <> <> <> <> <> <> <> <> <> <> <> <> <> <> <> <>
$$ <> <> <> <> <> <> <> <> <> <> <> <> <> <> <> <> <> <> <> <> <> <> <> <>
$$ <> <> <> <> <> <> <> <> <> <> <> <> <> <> <> <> <> <> <> <> <> <> <> <>
$$ <> <> <> <> <> <> <> <> <> <> <> <> <> <> <> <> <> <> <> <> <> <> <> <>
$$ <> <> <> <> <> <> <> <>
$$ ##$PramPPowNucW11= (0..127)
$$ <> <> <> <> <> <> <> <> <> <> <> <> <> <> <> <> <> <> <> <> <> <> <> <>
$$ <> <> <> <> <> <> <> <> <> <> <> <> <> <> <> <> <> <> <> <> <> <> <> <>
$$ <> <> <> <> <> <> <> <> <> <> <> <> <> <> <> <> <> <> <> <> <> <> <> <>
$$ <> <> <> <> <> <> <> <> <> <> <> <> <> <> <> <> <> <> <> <> <> <> <> <>
$$ <> <> <> <> <> <> <> <> <> <> <> <> <> <> <> <> <> <> <> <> <> <> <> <>
$$ <> <> <> <> <> <> <> <>
$$ ##$PramPPowNucW12= (0..127)
$$ <> <> <> <> <> <> <> <> <> <> <> <> <> <> <> <> <> <> <> <> <> <> <> <>
$$ <> <> <> <> <> <> <> <> <> <> <> <> <> <> <> <> <> <> <> <> <> <> <> <>
$$ <> <> <> <> <> <> <> <> <> <> <> <> <> <> <> <> <> <> <> <> <> <> <> <>
$$ <> <> <> <> <> <> <> <> <> <> <> <> <> <> <> <> <> <> <> <> <> <> <> <>
$$ <> <> <> <> <> <> <> <> <> <> <> <> <> <> <> <> <> <> <> <> <> <> <> <>
$$ <> <> <> <> <> <> <> <>
$$ ##$PramPPowNucW13= (0..127)
$$ <> <> <> <> <> <> <> <> <> <> <> <> <> <> <> <> <> <> <> <> <> <> <> <>
$$ <> <> <> <> <> <> <> <> <> <> <> <> <> <> <> <> <> <> <> <> <> <> <> <>
$$ <> <> <> <> <> <> <> <> <> <> <> <> <> <> <> <> <> <> <> <> <> <> <> <>
$$ <> <> <> <> <> <> <> <> <> <> <> <> <> <> <> <> <> <> <> <> <> <> <> <>
$$ <> <> <> <> <> <> <> <> <> <> <> <> <> <> <> <> <> <> <> <> <> <> <> <>
$$ <> <> <> <> <> <> <> <>
$$ ##$PramPPowNucW14= (0..127)
$$ <> <> <> <> <> <> <> <> <> <> <> <> <> <> <> <> <> <> <> <> <> <> <> <>
$$ <> <> <> <> <> <> <> <> <> <> <> <> <> <> <> <> <> <> <> <> <> <> <> <>
$$ <> <> <> <> <> <> <> <> <> <> <> <> <> <> <> <> <> <> <> <> <> <> <> <>
$$ <> <> <> <> <> <> <> <> <> <> <> <> <> <> <> <> <> <> <> <> <> <> <> <>
$$ <> <> <> <> <> <> <> <> <> <> <> <> <> <> <> <> <> <> <> <> <> <> <> <>
$$ <> <> <> <> <> <> <> <>
$$ ##$PramPPowNucW15= (0..127)
$$ <> <> <> <> <> <> <> <> <> <> <> <> <> <> <> <> <> <> <> <> <> <> <> <>
$$ <> <> <> <> <> <> <> <> <> <> <> <> <> <> <> <> <> <> <> <> <> <> <> <>
$$ <> <> <> <> <> <> <> <> <> <> <> <> <> <> <> <> <> <> <> <> <> <> <> <>
$$ <> <> <> <> <> <> <> <> <> <> <> <> <> <> <> <> <> <> <> <> <> <> <> <>
$$ <> <> <> <> <> <> <> <> <> <> <> <> <> <> <> <> <> <> <> <> <> <> <> <>
$$ <> <> <> <> <> <> <> <>
$$ ##$PramPPowNucW16= (0..127)
$$ <> <> <> <> <> <> <> <> <> <> <> <> <> <> <> <> <> <> <> <> <> <> <> <>
$$ <> <> <> <> <> <> <> <> <> <> <> <> <> <> <> <> <> <> <> <> <> <> <> <>
$$ <> <> <> <> <> <> <> <> <> <> <> <> <> <> <> <> <> <> <> <> <> <> <> <>
$$ <> <> <> <> <> <> <> <> <> <> <> <> <> <> <> <> <> <> <> <> <> <> <> <>
$$ <> <> <> <> <> <> <> <> <> <> <> <> <> <> <> <> <> <> <> <> <> <> <> <>
$$ <> <> <> <> <> <> <> <>
$$ ##$PramPPowNucW17= (0..127)
$$ <> <> <> <> <> <> <> <> <> <> <> <> <> <> <> <> <> <> <> <> <> <> <> <>
$$ <> <> <> <> <> <> <> <> <> <> <> <> <> <> <> <> <> <> <> <> <> <> <> <>
$$ <> <> <> <> <> <> <> <> <> <> <> <> <> <> <> <> <> <> <> <> <> <> <> <>
$$ <> <> <> <> <> <> <> <> <> <> <> <> <> <> <> <> <> <> <> <> <> <> <> <>
$$ <> <> <> <> <> <> <> <> <> <> <> <> <> <> <> <> <> <> <> <> <> <> <> <>
$$ <> <> <> <> <> <> <> <>
$$ ##$PramPPowNucW18= (0..127)
$$ <> <> <> <> <> <> <> <> <> <> <> <> <> <> <> <> <> <> <> <> <> <> <> <>
$$ <> <> <> <> <> <> <> <> <> <> <> <> <> <> <> <> <> <> <> <> <> <> <> <>
$$ <> <> <> <> <> <> <> <> <> <> <> <> <> <> <> <> <> <> <> <> <> <> <> <>
$$ <> <> <> <> <> <> <> <> <> <> <> <> <> <> <> <> <> <> <> <> <> <> <> <>
$$ <> <> <> <> <> <> <> <> <> <> <> <> <> <> <> <> <> <> <> <> <> <> <> <>
$$ <> <> <> <> <> <> <> <>
$$ ##$PramPPowNucW19= (0..127)
$$ <> <> <> <> <> <> <> <> <> <> <> <> <> <> <> <> <> <> <> <> <> <> <> <>
$$ <> <> <> <> <> <> <> <> <> <> <> <> <> <> <> <> <> <> <> <> <> <> <> <>
$$ <> <> <> <> <> <> <> <> <> <> <> <> <> <> <> <> <> <> <> <> <> <> <> <>
$$ <> <> <> <> <> <> <> <> <> <> <> <> <> <> <> <> <> <> <> <> <> <> <> <>
$$ <> <> <> <> <> <> <> <> <> <> <> <> <> <> <> <> <> <> <> <> <> <> <> <>
$$ <> <> <> <> <> <> <> <>
$$ ##$PramPPowNucW2= (0..127)
$$ <> <> <> <> <> <> <> <> <> <> <> <> <> <> <> <> <> <> <> <> <> <> <> <>
$$ <> <> <> <> <> <> <> <> <> <> <> <> <> <> <> <> <> <> <> <> <> <> <> <>
$$ <> <> <> <> <> <> <> <> <> <> <> <> <> <> <> <> <> <> <> <> <> <> <> <>
$$ <> <> <> <> <> <> <> <> <> <> <> <> <> <> <> <> <> <> <> <> <> <> <> <>
$$ <> <> <> <> <> <> <> <> <> <> <> <> <> <> <> <> <> <> <> <> <> <> <> <>
$$ <> <> <> <> <> <> <> <>
$$ ##$PramPPowNucW20= (0..127)
$$ <> <> <> <> <> <> <> <> <> <> <> <> <> <> <> <> <> <> <> <> <> <> <> <>
$$ <> <> <> <> <> <> <> <> <> <> <> <> <> <> <> <> <> <> <> <> <> <> <> <>
$$ <> <> <> <> <> <> <> <> <> <> <> <> <> <> <> <> <> <> <> <> <> <> <> <>
$$ <> <> <> <> <> <> <> <> <> <> <> <> <> <> <> <> <> <> <> <> <> <> <> <>
$$ <> <> <> <> <> <> <> <> <> <> <> <> <> <> <> <> <> <> <> <> <> <> <> <>
$$ <> <> <> <> <> <> <> <>
$$ ##$PramPPowNucW21= (0..127)
$$ <> <> <> <> <> <> <> <> <> <> <> <> <> <> <> <> <> <> <> <> <> <> <> <>
$$ <> <> <> <> <> <> <> <> <> <> <> <> <> <> <> <> <> <> <> <> <> <> <> <>
$$ <> <> <> <> <> <> <> <> <> <> <> <> <> <> <> <> <> <> <> <> <> <> <> <>
$$ <> <> <> <> <> <> <> <> <> <> <> <> <> <> <> <> <> <> <> <> <> <> <> <>
$$ <> <> <> <> <> <> <> <> <> <> <> <> <> <> <> <> <> <> <> <> <> <> <> <>
$$ <> <> <> <> <> <> <> <>
$$ ##$PramPPowNucW22= (0..127)
$$ <> <> <> <> <> <> <> <> <> <> <> <> <> <> <> <> <> <> <> <> <> <> <> <>
$$ <> <> <> <> <> <> <> <> <> <> <> <> <> <> <> <> <> <> <> <> <> <> <> <>
$$ <> <> <> <> <> <> <> <> <> <> <> <> <> <> <> <> <> <> <> <> <> <> <> <>
$$ <> <> <> <> <> <> <> <> <> <> <> <> <> <> <> <> <> <> <> <> <> <> <> <>
$$ <> <> <> <> <> <> <> <> <> <> <> <> <> <> <> <> <> <> <> <> <> <> <> <>
$$ <> <> <> <> <> <> <> <>
$$ ##$PramPPowNucW23= (0..127)
$$ <> <> <> <> <> <> <> <> <> <> <> <> <> <> <> <> <> <> <> <> <> <> <> <>
$$ <> <> <> <> <> <> <> <> <> <> <> <> <> <> <> <> <> <> <> <> <> <> <> <>
$$ <> <> <> <> <> <> <> <> <> <> <> <> <> <> <> <> <> <> <> <> <> <> <> <>
$$ <> <> <> <> <> <> <> <> <> <> <> <> <> <> <> <> <> <> <> <> <> <> <> <>
$$ <> <> <> <> <> <> <> <> <> <> <> <> <> <> <> <> <> <> <> <> <> <> <> <>
$$ <> <> <> <> <> <> <> <>
$$ ##$PramPPowNucW24= (0..127)
$$ <> <> <> <> <> <> <> <> <> <> <> <> <> <> <> <> <> <> <> <> <> <> <> <>
$$ <> <> <> <> <> <> <> <> <> <> <> <> <> <> <> <> <> <> <> <> <> <> <> <>
$$ <> <> <> <> <> <> <> <> <> <> <> <> <> <> <> <> <> <> <> <> <> <> <> <>
$$ <> <> <> <> <> <> <> <> <> <> <> <> <> <> <> <> <> <> <> <> <> <> <> <>
$$ <> <> <> <> <> <> <> <> <> <> <> <> <> <> <> <> <> <> <> <> <> <> <> <>
$$ <> <> <> <> <> <> <> <>
$$ ##$PramPPowNucW25= (0..127)
$$ <> <> <> <> <> <> <> <> <> <> <> <> <> <> <> <> <> <> <> <> <> <> <> <>
$$ <> <> <> <> <> <> <> <> <> <> <> <> <> <> <> <> <> <> <> <> <> <> <> <>
$$ <> <> <> <> <> <> <> <> <> <> <> <> <> <> <> <> <> <> <> <> <> <> <> <>
$$ <> <> <> <> <> <> <> <> <> <> <> <> <> <> <> <> <> <> <> <> <> <> <> <>
$$ <> <> <> <> <> <> <> <> <> <> <> <> <> <> <> <> <> <> <> <> <> <> <> <>
$$ <> <> <> <> <> <> <> <>
$$ ##$PramPPowNucW26= (0..127)
$$ <> <> <> <> <> <> <> <> <> <> <> <> <> <> <> <> <> <> <> <> <> <> <> <>
$$ <> <> <> <> <> <> <> <> <> <> <> <> <> <> <> <> <> <> <> <> <> <> <> <>
$$ <> <> <> <> <> <> <> <> <> <> <> <> <> <> <> <> <> <> <> <> <> <> <> <>
$$ <> <> <> <> <> <> <> <> <> <> <> <> <> <> <> <> <> <> <> <> <> <> <> <>
$$ <> <> <> <> <> <> <> <> <> <> <> <> <> <> <> <> <> <> <> <> <> <> <> <>
$$ <> <> <> <> <> <> <> <>
$$ ##$PramPPowNucW27= (0..127)
$$ <> <> <> <> <> <> <> <> <> <> <> <> <> <> <> <> <> <> <> <> <> <> <> <>
$$ <> <> <> <> <> <> <> <> <> <> <> <> <> <> <> <> <> <> <> <> <> <> <> <>
$$ <> <> <> <> <> <> <> <> <> <> <> <> <> <> <> <> <> <> <> <> <> <> <> <>
$$ <> <> <> <> <> <> <> <> <> <> <> <> <> <> <> <> <> <> <> <> <> <> <> <>
$$ <> <> <> <> <> <> <> <> <> <> <> <> <> <> <> <> <> <> <> <> <> <> <> <>
$$ <> <> <> <> <> <> <> <>
$$ ##$PramPPowNucW28= (0..127)
$$ <> <> <> <> <> <> <> <> <> <> <> <> <> <> <> <> <> <> <> <> <> <> <> <>
$$ <> <> <> <> <> <> <> <> <> <> <> <> <> <> <> <> <> <> <> <> <> <> <> <>
$$ <> <> <> <> <> <> <> <> <> <> <> <> <> <> <> <> <> <> <> <> <> <> <> <>
$$ <> <> <> <> <> <> <> <> <> <> <> <> <> <> <> <> <> <> <> <> <> <> <> <>
$$ <> <> <> <> <> <> <> <> <> <> <> <> <> <> <> <> <> <> <> <> <> <> <> <>
$$ <> <> <> <> <> <> <> <>
$$ ##$PramPPowNucW29= (0..127)
$$ <> <> <> <> <> <> <> <> <> <> <> <> <> <> <> <> <> <> <> <> <> <> <> <>
$$ <> <> <> <> <> <> <> <> <> <> <> <> <> <> <> <> <> <> <> <> <> <> <> <>
$$ <> <> <> <> <> <> <> <> <> <> <> <> <> <> <> <> <> <> <> <> <> <> <> <>
$$ <> <> <> <> <> <> <> <> <> <> <> <> <> <> <> <> <> <> <> <> <> <> <> <>
$$ <> <> <> <> <> <> <> <> <> <> <> <> <> <> <> <> <> <> <> <> <> <> <> <>
$$ <> <> <> <> <> <> <> <>
$$ ##$PramPPowNucW3= (0..127)
$$ <> <> <> <> <> <> <> <> <> <> <> <> <> <> <> <> <> <> <> <> <> <> <> <>
$$ <> <> <> <> <> <> <> <> <> <> <> <> <> <> <> <> <> <> <> <> <> <> <> <>
$$ <> <> <> <> <> <> <> <> <> <> <> <> <> <> <> <> <> <> <> <> <> <> <> <>
$$ <> <> <> <> <> <> <> <> <> <> <> <> <> <> <> <> <> <> <> <> <> <> <> <>
$$ <> <> <> <> <> <> <> <> <> <> <> <> <> <> <> <> <> <> <> <> <> <> <> <>
$$ <> <> <> <> <> <> <> <>
$$ ##$PramPPowNucW30= (0..127)
$$ <> <> <> <> <> <> <> <> <> <> <> <> <> <> <> <> <> <> <> <> <> <> <> <>
$$ <> <> <> <> <> <> <> <> <> <> <> <> <> <> <> <> <> <> <> <> <> <> <> <>
$$ <> <> <> <> <> <> <> <> <> <> <> <> <> <> <> <> <> <> <> <> <> <> <> <>
$$ <> <> <> <> <> <> <> <> <> <> <> <> <> <> <> <> <> <> <> <> <> <> <> <>
$$ <> <> <> <> <> <> <> <> <> <> <> <> <> <> <> <> <> <> <> <> <> <> <> <>
$$ <> <> <> <> <> <> <> <>
$$ ##$PramPPowNucW31= (0..127)
$$ <> <> <> <> <> <> <> <> <> <> <> <> <> <> <> <> <> <> <> <> <> <> <> <>
$$ <> <> <> <> <> <> <> <> <> <> <> <> <> <> <> <> <> <> <> <> <> <> <> <>
$$ <> <> <> <> <> <> <> <> <> <> <> <> <> <> <> <> <> <> <> <> <> <> <> <>
$$ <> <> <> <> <> <> <> <> <> <> <> <> <> <> <> <> <> <> <> <> <> <> <> <>
$$ <> <> <> <> <> <> <> <> <> <> <> <> <> <> <> <> <> <> <> <> <> <> <> <>
$$ <> <> <> <> <> <> <> <>
$$ ##$PramPPowNucW32= (0..127)
$$ <> <> <> <> <> <> <> <> <> <> <> <> <> <> <> <> <> <> <> <> <> <> <> <>
$$ <> <> <> <> <> <> <> <> <> <> <> <> <> <> <> <> <> <> <> <> <> <> <> <>
$$ <> <> <> <> <> <> <> <> <> <> <> <> <> <> <> <> <> <> <> <> <> <> <> <>
$$ <> <> <> <> <> <> <> <> <> <> <> <> <> <> <> <> <> <> <> <> <> <> <> <>
$$ <> <> <> <> <> <> <> <> <> <> <> <> <> <> <> <> <> <> <> <> <> <> <> <>
$$ <> <> <> <> <> <> <> <>
$$ ##$PramPPowNucW4= (0..127)
$$ <> <> <> <> <> <> <> <> <> <> <> <> <> <> <> <> <> <> <> <> <> <> <> <>
$$ <> <> <> <> <> <> <> <> <> <> <> <> <> <> <> <> <> <> <> <> <> <> <> <>
$$ <> <> <> <> <> <> <> <> <> <> <> <> <> <> <> <> <> <> <> <> <> <> <> <>
$$ <> <> <> <> <> <> <> <> <> <> <> <> <> <> <> <> <> <> <> <> <> <> <> <>
$$ <> <> <> <> <> <> <> <> <> <> <> <> <> <> <> <> <> <> <> <> <> <> <> <>
$$ <> <> <> <> <> <> <> <>
$$ ##$PramPPowNucW5= (0..127)
$$ <> <> <> <> <> <> <> <> <> <> <> <> <> <> <> <> <> <> <> <> <> <> <> <>
$$ <> <> <> <> <> <> <> <> <> <> <> <> <> <> <> <> <> <> <> <> <> <> <> <>
$$ <> <> <> <> <> <> <> <> <> <> <> <> <> <> <> <> <> <> <> <> <> <> <> <>
$$ <> <> <> <> <> <> <> <> <> <> <> <> <> <> <> <> <> <> <> <> <> <> <> <>
$$ <> <> <> <> <> <> <> <> <> <> <> <> <> <> <> <> <> <> <> <> <> <> <> <>
$$ <> <> <> <> <> <> <> <>
$$ ##$PramPPowNucW6= (0..127)
$$ <> <> <> <> <> <> <> <> <> <> <> <> <> <> <> <> <> <> <> <> <> <> <> <>
$$ <> <> <> <> <> <> <> <> <> <> <> <> <> <> <> <> <> <> <> <> <> <> <> <>
$$ <> <> <> <> <> <> <> <> <> <> <> <> <> <> <> <> <> <> <> <> <> <> <> <>
$$ <> <> <> <> <> <> <> <> <> <> <> <> <> <> <> <> <> <> <> <> <> <> <> <>
$$ <> <> <> <> <> <> <> <> <> <> <> <> <> <> <> <> <> <> <> <> <> <> <> <>
$$ <> <> <> <> <> <> <> <>
$$ ##$PramPPowNucW7= (0..127)
$$ <> <> <> <> <> <> <> <> <> <> <> <> <> <> <> <> <> <> <> <> <> <> <> <>
$$ <> <> <> <> <> <> <> <> <> <> <> <> <> <> <> <> <> <> <> <> <> <> <> <>
$$ <> <> <> <> <> <> <> <> <> <> <> <> <> <> <> <> <> <> <> <> <> <> <> <>
$$ <> <> <> <> <> <> <> <> <> <> <> <> <> <> <> <> <> <> <> <> <> <> <> <>
$$ <> <> <> <> <> <> <> <> <> <> <> <> <> <> <> <> <> <> <> <> <> <> <> <>
$$ <> <> <> <> <> <> <> <>
$$ ##$PramPPowNucW8= (0..127)
$$ <> <> <> <> <> <> <> <> <> <> <> <> <> <> <> <> <> <> <> <> <> <> <> <>
$$ <> <> <> <> <> <> <> <> <> <> <> <> <> <> <> <> <> <> <> <> <> <> <> <>
$$ <> <> <> <> <> <> <> <> <> <> <> <> <> <> <> <> <> <> <> <> <> <> <> <>
$$ <> <> <> <> <> <> <> <> <> <> <> <> <> <> <> <> <> <> <> <> <> <> <> <>
$$ <> <> <> <> <> <> <> <> <> <> <> <> <> <> <> <> <> <> <> <> <> <> <> <>
$$ <> <> <> <> <> <> <> <>
$$ ##$PramPPowNucW9= (0..127)
$$ <> <> <> <> <> <> <> <> <> <> <> <> <> <> <> <> <> <> <> <> <> <> <> <>
$$ <> <> <> <> <> <> <> <> <> <> <> <> <> <> <> <> <> <> <> <> <> <> <> <>
$$ <> <> <> <> <> <> <> <> <> <> <> <> <> <> <> <> <> <> <> <> <> <> <> <>
$$ <> <> <> <> <> <> <> <> <> <> <> <> <> <> <> <> <> <> <> <> <> <> <> <>
$$ <> <> <> <> <> <> <> <> <> <> <> <> <> <> <> <> <> <> <> <> <> <> <> <>
$$ <> <> <> <> <> <> <> <>
$$ ##$PramPeakPowerW= (0..31)
$$ 4000 500 500 0 0 0 0 0 0 0 0 0 0 0 0 0 0 0 0 0 0 0 0 0 0 0 0 0 0 0 0 0
$$ ##$PramPowerSwitch= (0..31)
$$ 0 0 0 0 0 0 0 0 0 0 0 0 0 0 0 0 0 0 0 0 0 0 0 0 0 0 0 0 0 0 0 0
$$ ##$PramPulWidthMs= (0..31)
$$ 10 0.1 0.1 0 0 0 0 0 0 0 0 0 0 0 0 0 0 0 0 0 0 0 0 0 0 0 0 0 0 0 0 0
$$ ##$PreampModBisDat= (0..31)
$$ 20170831 20170803 20171010 0 0 0 0 0 0 0 0 0 0 0 0 0 0 0 0 0 0 0 0 0 0
$$ 0 0 0 0 0 0 0
$$ ##$PreampModPN= (0..31)
$$ <Z103203> <Z003471> <Z106984> <> <> <> <> <> <> <> <> <> <> <> <> <> <>
$$ <> <> <> <> <> <> <> <> <> <> <> <> <> <> <>
$$ ##$PreampModSN= (0..31)
$$ <00751> <00354> <00310> <> <> <> <> <> <> <> <> <> <> <> <> <> <> <> <>
$$ <> <> <> <> <> <> <> <> <> <> <> <> <>
$$ ##$ProdigyEth= <no>
$$ ##$ProdigyFw= <no>
$$ ##$ProdigyPn= <no>
$$ ##$ProdigySn= <no>
$$ ##$RFSVTY= <no>
$$ ##$RGTYPE= (0..31)
$$ 9 9 0 0 0 0 0 0 0 0 0 0 0 0 0 0 0 0 0 0 0 0 0 0 0 0 0 0 0 0 0 0
$$ ##$RG_max= (0..31)
$$ 101 101 -1 -1 -1 -1 -1 -1 -1 -1 -1 -1 -1 -1 -1 -1 -1 -1 -1 -1 -1 -1 -1
$$ -1 -1 -1 -1 -1 -1 -1 -1 -1
$$ ##$RG_min= (0..31)
$$ 0.25 0.25 -1 -1 -1 -1 -1 -1 -1 -1 -1 -1 -1 -1 -1 -1 -1 -1 -1 -1 -1 -1 -1
$$ -1 -1 -1 -1 -1 -1 -1 -1 -1
$$ ##$RG_tab1= (0..127)
$$ 0.25 0.28 0.32 0.35 0.4 0.44 0.5 0.56 0.64 0.7 0.8 0.89 1 1.12 1.28 1.4
$$ 1.6 1.78 2 2.25 2.56 2.8 3.2 3.56 4 4.5 5 5.6 6.35 7.12 8 9 10 11.3 12.7
$$ 14.2 16 18 20.2 22.6 25.4 28.5 32 36 40.3 45.2 50.8 57 64 71.8 80.6 90.5
$$ 101 -1 -1 -1 -1 -1 -1 -1 -1 -1 -1 -1 -1 -1 -1 -1 -1 -1 -1 -1 -1 -1 -1 -1
$$ -1 -1 -1 -1 -1 -1 -1 -1 -1 -1 -1 -1 -1 -1 -1 -1 -1 -1 -1 -1 -1 -1 -1 -1
$$ -1 -1 -1 -1 -1 -1 -1 -1 -1 -1 -1 -1 -1 -1 -1 -1 -1 -1 -1 -1 -1 -1 -1 -1
$$ -1 -1 -1 -1
$$ ##$RG_tab10= (0..127)
$$ -1 -1 -1 -1 -1 -1 -1 -1 -1 -1 -1 -1 -1 -1 -1 -1 -1 -1 -1 -1 -1 -1 -1 -1
$$ -1 -1 -1 -1 -1 -1 -1 -1 -1 -1 -1 -1 -1 -1 -1 -1 -1 -1 -1 -1 -1 -1 -1 -1
$$ -1 -1 -1 -1 -1 -1 -1 -1 -1 -1 -1 -1 -1 -1 -1 -1 -1 -1 -1 -1 -1 -1 -1 -1
$$ -1 -1 -1 -1 -1 -1 -1 -1 -1 -1 -1 -1 -1 -1 -1 -1 -1 -1 -1 -1 -1 -1 -1 -1
$$ -1 -1 -1 -1 -1 -1 -1 -1 -1 -1 -1 -1 -1 -1 -1 -1 -1 -1 -1 -1 -1 -1 -1 -1
$$ -1 -1 -1 -1 -1 -1 -1 -1
$$ ##$RG_tab11= (0..127)
$$ -1 -1 -1 -1 -1 -1 -1 -1 -1 -1 -1 -1 -1 -1 -1 -1 -1 -1 -1 -1 -1 -1 -1 -1
$$ -1 -1 -1 -1 -1 -1 -1 -1 -1 -1 -1 -1 -1 -1 -1 -1 -1 -1 -1 -1 -1 -1 -1 -1
$$ -1 -1 -1 -1 -1 -1 -1 -1 -1 -1 -1 -1 -1 -1 -1 -1 -1 -1 -1 -1 -1 -1 -1 -1
$$ -1 -1 -1 -1 -1 -1 -1 -1 -1 -1 -1 -1 -1 -1 -1 -1 -1 -1 -1 -1 -1 -1 -1 -1
$$ -1 -1 -1 -1 -1 -1 -1 -1 -1 -1 -1 -1 -1 -1 -1 -1 -1 -1 -1 -1 -1 -1 -1 -1
$$ -1 -1 -1 -1 -1 -1 -1 -1
$$ ##$RG_tab12= (0..127)
$$ -1 -1 -1 -1 -1 -1 -1 -1 -1 -1 -1 -1 -1 -1 -1 -1 -1 -1 -1 -1 -1 -1 -1 -1
$$ -1 -1 -1 -1 -1 -1 -1 -1 -1 -1 -1 -1 -1 -1 -1 -1 -1 -1 -1 -1 -1 -1 -1 -1
$$ -1 -1 -1 -1 -1 -1 -1 -1 -1 -1 -1 -1 -1 -1 -1 -1 -1 -1 -1 -1 -1 -1 -1 -1
$$ -1 -1 -1 -1 -1 -1 -1 -1 -1 -1 -1 -1 -1 -1 -1 -1 -1 -1 -1 -1 -1 -1 -1 -1
$$ -1 -1 -1 -1 -1 -1 -1 -1 -1 -1 -1 -1 -1 -1 -1 -1 -1 -1 -1 -1 -1 -1 -1 -1
$$ -1 -1 -1 -1 -1 -1 -1 -1
$$ ##$RG_tab13= (0..127)
$$ -1 -1 -1 -1 -1 -1 -1 -1 -1 -1 -1 -1 -1 -1 -1 -1 -1 -1 -1 -1 -1 -1 -1 -1
$$ -1 -1 -1 -1 -1 -1 -1 -1 -1 -1 -1 -1 -1 -1 -1 -1 -1 -1 -1 -1 -1 -1 -1 -1
$$ -1 -1 -1 -1 -1 -1 -1 -1 -1 -1 -1 -1 -1 -1 -1 -1 -1 -1 -1 -1 -1 -1 -1 -1
$$ -1 -1 -1 -1 -1 -1 -1 -1 -1 -1 -1 -1 -1 -1 -1 -1 -1 -1 -1 -1 -1 -1 -1 -1
$$ -1 -1 -1 -1 -1 -1 -1 -1 -1 -1 -1 -1 -1 -1 -1 -1 -1 -1 -1 -1 -1 -1 -1 -1
$$ -1 -1 -1 -1 -1 -1 -1 -1
$$ ##$RG_tab14= (0..127)
$$ -1 -1 -1 -1 -1 -1 -1 -1 -1 -1 -1 -1 -1 -1 -1 -1 -1 -1 -1 -1 -1 -1 -1 -1
$$ -1 -1 -1 -1 -1 -1 -1 -1 -1 -1 -1 -1 -1 -1 -1 -1 -1 -1 -1 -1 -1 -1 -1 -1
$$ -1 -1 -1 -1 -1 -1 -1 -1 -1 -1 -1 -1 -1 -1 -1 -1 -1 -1 -1 -1 -1 -1 -1 -1
$$ -1 -1 -1 -1 -1 -1 -1 -1 -1 -1 -1 -1 -1 -1 -1 -1 -1 -1 -1 -1 -1 -1 -1 -1
$$ -1 -1 -1 -1 -1 -1 -1 -1 -1 -1 -1 -1 -1 -1 -1 -1 -1 -1 -1 -1 -1 -1 -1 -1
$$ -1 -1 -1 -1 -1 -1 -1 -1
$$ ##$RG_tab15= (0..127)
$$ -1 -1 -1 -1 -1 -1 -1 -1 -1 -1 -1 -1 -1 -1 -1 -1 -1 -1 -1 -1 -1 -1 -1 -1
$$ -1 -1 -1 -1 -1 -1 -1 -1 -1 -1 -1 -1 -1 -1 -1 -1 -1 -1 -1 -1 -1 -1 -1 -1
$$ -1 -1 -1 -1 -1 -1 -1 -1 -1 -1 -1 -1 -1 -1 -1 -1 -1 -1 -1 -1 -1 -1 -1 -1
$$ -1 -1 -1 -1 -1 -1 -1 -1 -1 -1 -1 -1 -1 -1 -1 -1 -1 -1 -1 -1 -1 -1 -1 -1
$$ -1 -1 -1 -1 -1 -1 -1 -1 -1 -1 -1 -1 -1 -1 -1 -1 -1 -1 -1 -1 -1 -1 -1 -1
$$ -1 -1 -1 -1 -1 -1 -1 -1
$$ ##$RG_tab16= (0..127)
$$ -1 -1 -1 -1 -1 -1 -1 -1 -1 -1 -1 -1 -1 -1 -1 -1 -1 -1 -1 -1 -1 -1 -1 -1
$$ -1 -1 -1 -1 -1 -1 -1 -1 -1 -1 -1 -1 -1 -1 -1 -1 -1 -1 -1 -1 -1 -1 -1 -1
$$ -1 -1 -1 -1 -1 -1 -1 -1 -1 -1 -1 -1 -1 -1 -1 -1 -1 -1 -1 -1 -1 -1 -1 -1
$$ -1 -1 -1 -1 -1 -1 -1 -1 -1 -1 -1 -1 -1 -1 -1 -1 -1 -1 -1 -1 -1 -1 -1 -1
$$ -1 -1 -1 -1 -1 -1 -1 -1 -1 -1 -1 -1 -1 -1 -1 -1 -1 -1 -1 -1 -1 -1 -1 -1
$$ -1 -1 -1 -1 -1 -1 -1 -1
$$ ##$RG_tab17= (0..127)
$$ -1 -1 -1 -1 -1 -1 -1 -1 -1 -1 -1 -1 -1 -1 -1 -1 -1 -1 -1 -1 -1 -1 -1 -1
$$ -1 -1 -1 -1 -1 -1 -1 -1 -1 -1 -1 -1 -1 -1 -1 -1 -1 -1 -1 -1 -1 -1 -1 -1
$$ -1 -1 -1 -1 -1 -1 -1 -1 -1 -1 -1 -1 -1 -1 -1 -1 -1 -1 -1 -1 -1 -1 -1 -1
$$ -1 -1 -1 -1 -1 -1 -1 -1 -1 -1 -1 -1 -1 -1 -1 -1 -1 -1 -1 -1 -1 -1 -1 -1
$$ -1 -1 -1 -1 -1 -1 -1 -1 -1 -1 -1 -1 -1 -1 -1 -1 -1 -1 -1 -1 -1 -1 -1 -1
$$ -1 -1 -1 -1 -1 -1 -1 -1
$$ ##$RG_tab18= (0..127)
$$ -1 -1 -1 -1 -1 -1 -1 -1 -1 -1 -1 -1 -1 -1 -1 -1 -1 -1 -1 -1 -1 -1 -1 -1
$$ -1 -1 -1 -1 -1 -1 -1 -1 -1 -1 -1 -1 -1 -1 -1 -1 -1 -1 -1 -1 -1 -1 -1 -1
$$ -1 -1 -1 -1 -1 -1 -1 -1 -1 -1 -1 -1 -1 -1 -1 -1 -1 -1 -1 -1 -1 -1 -1 -1
$$ -1 -1 -1 -1 -1 -1 -1 -1 -1 -1 -1 -1 -1 -1 -1 -1 -1 -1 -1 -1 -1 -1 -1 -1
$$ -1 -1 -1 -1 -1 -1 -1 -1 -1 -1 -1 -1 -1 -1 -1 -1 -1 -1 -1 -1 -1 -1 -1 -1
$$ -1 -1 -1 -1 -1 -1 -1 -1
$$ ##$RG_tab19= (0..127)
$$ -1 -1 -1 -1 -1 -1 -1 -1 -1 -1 -1 -1 -1 -1 -1 -1 -1 -1 -1 -1 -1 -1 -1 -1
$$ -1 -1 -1 -1 -1 -1 -1 -1 -1 -1 -1 -1 -1 -1 -1 -1 -1 -1 -1 -1 -1 -1 -1 -1
$$ -1 -1 -1 -1 -1 -1 -1 -1 -1 -1 -1 -1 -1 -1 -1 -1 -1 -1 -1 -1 -1 -1 -1 -1
$$ -1 -1 -1 -1 -1 -1 -1 -1 -1 -1 -1 -1 -1 -1 -1 -1 -1 -1 -1 -1 -1 -1 -1 -1
$$ -1 -1 -1 -1 -1 -1 -1 -1 -1 -1 -1 -1 -1 -1 -1 -1 -1 -1 -1 -1 -1 -1 -1 -1
$$ -1 -1 -1 -1 -1 -1 -1 -1
$$ ##$RG_tab2= (0..127)
$$ 0.25 0.28 0.32 0.35 0.4 0.44 0.5 0.56 0.64 0.7 0.8 0.89 1 1.12 1.28 1.4
$$ 1.6 1.78 2 2.25 2.56 2.8 3.2 3.56 4 4.5 5 5.6 6.35 7.12 8 9 10 11.3 12.7
$$ 14.2 16 18 20.2 22.6 25.4 28.5 32 36 40.3 45.2 50.8 57 64 71.8 80.6 90.5
$$ 101 -1 -1 -1 -1 -1 -1 -1 -1 -1 -1 -1 -1 -1 -1 -1 -1 -1 -1 -1 -1 -1 -1 -1
$$ -1 -1 -1 -1 -1 -1 -1 -1 -1 -1 -1 -1 -1 -1 -1 -1 -1 -1 -1 -1 -1 -1 -1 -1
$$ -1 -1 -1 -1 -1 -1 -1 -1 -1 -1 -1 -1 -1 -1 -1 -1 -1 -1 -1 -1 -1 -1 -1 -1
$$ -1 -1 -1 -1
$$ ##$RG_tab20= (0..127)
$$ -1 -1 -1 -1 -1 -1 -1 -1 -1 -1 -1 -1 -1 -1 -1 -1 -1 -1 -1 -1 -1 -1 -1 -1
$$ -1 -1 -1 -1 -1 -1 -1 -1 -1 -1 -1 -1 -1 -1 -1 -1 -1 -1 -1 -1 -1 -1 -1 -1
$$ -1 -1 -1 -1 -1 -1 -1 -1 -1 -1 -1 -1 -1 -1 -1 -1 -1 -1 -1 -1 -1 -1 -1 -1
$$ -1 -1 -1 -1 -1 -1 -1 -1 -1 -1 -1 -1 -1 -1 -1 -1 -1 -1 -1 -1 -1 -1 -1 -1
$$ -1 -1 -1 -1 -1 -1 -1 -1 -1 -1 -1 -1 -1 -1 -1 -1 -1 -1 -1 -1 -1 -1 -1 -1
$$ -1 -1 -1 -1 -1 -1 -1 -1
$$ ##$RG_tab21= (0..127)
$$ -1 -1 -1 -1 -1 -1 -1 -1 -1 -1 -1 -1 -1 -1 -1 -1 -1 -1 -1 -1 -1 -1 -1 -1
$$ -1 -1 -1 -1 -1 -1 -1 -1 -1 -1 -1 -1 -1 -1 -1 -1 -1 -1 -1 -1 -1 -1 -1 -1
$$ -1 -1 -1 -1 -1 -1 -1 -1 -1 -1 -1 -1 -1 -1 -1 -1 -1 -1 -1 -1 -1 -1 -1 -1
$$ -1 -1 -1 -1 -1 -1 -1 -1 -1 -1 -1 -1 -1 -1 -1 -1 -1 -1 -1 -1 -1 -1 -1 -1
$$ -1 -1 -1 -1 -1 -1 -1 -1 -1 -1 -1 -1 -1 -1 -1 -1 -1 -1 -1 -1 -1 -1 -1 -1
$$ -1 -1 -1 -1 -1 -1 -1 -1
$$ ##$RG_tab22= (0..127)
$$ -1 -1 -1 -1 -1 -1 -1 -1 -1 -1 -1 -1 -1 -1 -1 -1 -1 -1 -1 -1 -1 -1 -1 -1
$$ -1 -1 -1 -1 -1 -1 -1 -1 -1 -1 -1 -1 -1 -1 -1 -1 -1 -1 -1 -1 -1 -1 -1 -1
$$ -1 -1 -1 -1 -1 -1 -1 -1 -1 -1 -1 -1 -1 -1 -1 -1 -1 -1 -1 -1 -1 -1 -1 -1
$$ -1 -1 -1 -1 -1 -1 -1 -1 -1 -1 -1 -1 -1 -1 -1 -1 -1 -1 -1 -1 -1 -1 -1 -1
$$ -1 -1 -1 -1 -1 -1 -1 -1 -1 -1 -1 -1 -1 -1 -1 -1 -1 -1 -1 -1 -1 -1 -1 -1
$$ -1 -1 -1 -1 -1 -1 -1 -1
$$ ##$RG_tab23= (0..127)
$$ -1 -1 -1 -1 -1 -1 -1 -1 -1 -1 -1 -1 -1 -1 -1 -1 -1 -1 -1 -1 -1 -1 -1 -1
$$ -1 -1 -1 -1 -1 -1 -1 -1 -1 -1 -1 -1 -1 -1 -1 -1 -1 -1 -1 -1 -1 -1 -1 -1
$$ -1 -1 -1 -1 -1 -1 -1 -1 -1 -1 -1 -1 -1 -1 -1 -1 -1 -1 -1 -1 -1 -1 -1 -1
$$ -1 -1 -1 -1 -1 -1 -1 -1 -1 -1 -1 -1 -1 -1 -1 -1 -1 -1 -1 -1 -1 -1 -1 -1
$$ -1 -1 -1 -1 -1 -1 -1 -1 -1 -1 -1 -1 -1 -1 -1 -1 -1 -1 -1 -1 -1 -1 -1 -1
$$ -1 -1 -1 -1 -1 -1 -1 -1
$$ ##$RG_tab24= (0..127)
$$ -1 -1 -1 -1 -1 -1 -1 -1 -1 -1 -1 -1 -1 -1 -1 -1 -1 -1 -1 -1 -1 -1 -1 -1
$$ -1 -1 -1 -1 -1 -1 -1 -1 -1 -1 -1 -1 -1 -1 -1 -1 -1 -1 -1 -1 -1 -1 -1 -1
$$ -1 -1 -1 -1 -1 -1 -1 -1 -1 -1 -1 -1 -1 -1 -1 -1 -1 -1 -1 -1 -1 -1 -1 -1
$$ -1 -1 -1 -1 -1 -1 -1 -1 -1 -1 -1 -1 -1 -1 -1 -1 -1 -1 -1 -1 -1 -1 -1 -1
$$ -1 -1 -1 -1 -1 -1 -1 -1 -1 -1 -1 -1 -1 -1 -1 -1 -1 -1 -1 -1 -1 -1 -1 -1
$$ -1 -1 -1 -1 -1 -1 -1 -1
$$ ##$RG_tab3= (0..127)
$$ -1 -1 -1 -1 -1 -1 -1 -1 -1 -1 -1 -1 -1 -1 -1 -1 -1 -1 -1 -1 -1 -1 -1 -1
$$ -1 -1 -1 -1 -1 -1 -1 -1 -1 -1 -1 -1 -1 -1 -1 -1 -1 -1 -1 -1 -1 -1 -1 -1
$$ -1 -1 -1 -1 -1 -1 -1 -1 -1 -1 -1 -1 -1 -1 -1 -1 -1 -1 -1 -1 -1 -1 -1 -1
$$ -1 -1 -1 -1 -1 -1 -1 -1 -1 -1 -1 -1 -1 -1 -1 -1 -1 -1 -1 -1 -1 -1 -1 -1
$$ -1 -1 -1 -1 -1 -1 -1 -1 -1 -1 -1 -1 -1 -1 -1 -1 -1 -1 -1 -1 -1 -1 -1 -1
$$ -1 -1 -1 -1 -1 -1 -1 -1
$$ ##$RG_tab4= (0..127)
$$ -1 -1 -1 -1 -1 -1 -1 -1 -1 -1 -1 -1 -1 -1 -1 -1 -1 -1 -1 -1 -1 -1 -1 -1
$$ -1 -1 -1 -1 -1 -1 -1 -1 -1 -1 -1 -1 -1 -1 -1 -1 -1 -1 -1 -1 -1 -1 -1 -1
$$ -1 -1 -1 -1 -1 -1 -1 -1 -1 -1 -1 -1 -1 -1 -1 -1 -1 -1 -1 -1 -1 -1 -1 -1
$$ -1 -1 -1 -1 -1 -1 -1 -1 -1 -1 -1 -1 -1 -1 -1 -1 -1 -1 -1 -1 -1 -1 -1 -1
$$ -1 -1 -1 -1 -1 -1 -1 -1 -1 -1 -1 -1 -1 -1 -1 -1 -1 -1 -1 -1 -1 -1 -1 -1
$$ -1 -1 -1 -1 -1 -1 -1 -1
$$ ##$RG_tab5= (0..127)
$$ -1 -1 -1 -1 -1 -1 -1 -1 -1 -1 -1 -1 -1 -1 -1 -1 -1 -1 -1 -1 -1 -1 -1 -1
$$ -1 -1 -1 -1 -1 -1 -1 -1 -1 -1 -1 -1 -1 -1 -1 -1 -1 -1 -1 -1 -1 -1 -1 -1
$$ -1 -1 -1 -1 -1 -1 -1 -1 -1 -1 -1 -1 -1 -1 -1 -1 -1 -1 -1 -1 -1 -1 -1 -1
$$ -1 -1 -1 -1 -1 -1 -1 -1 -1 -1 -1 -1 -1 -1 -1 -1 -1 -1 -1 -1 -1 -1 -1 -1
$$ -1 -1 -1 -1 -1 -1 -1 -1 -1 -1 -1 -1 -1 -1 -1 -1 -1 -1 -1 -1 -1 -1 -1 -1
$$ -1 -1 -1 -1 -1 -1 -1 -1
$$ ##$RG_tab6= (0..127)
$$ -1 -1 -1 -1 -1 -1 -1 -1 -1 -1 -1 -1 -1 -1 -1 -1 -1 -1 -1 -1 -1 -1 -1 -1
$$ -1 -1 -1 -1 -1 -1 -1 -1 -1 -1 -1 -1 -1 -1 -1 -1 -1 -1 -1 -1 -1 -1 -1 -1
$$ -1 -1 -1 -1 -1 -1 -1 -1 -1 -1 -1 -1 -1 -1 -1 -1 -1 -1 -1 -1 -1 -1 -1 -1
$$ -1 -1 -1 -1 -1 -1 -1 -1 -1 -1 -1 -1 -1 -1 -1 -1 -1 -1 -1 -1 -1 -1 -1 -1
$$ -1 -1 -1 -1 -1 -1 -1 -1 -1 -1 -1 -1 -1 -1 -1 -1 -1 -1 -1 -1 -1 -1 -1 -1
$$ -1 -1 -1 -1 -1 -1 -1 -1
$$ ##$RG_tab7= (0..127)
$$ -1 -1 -1 -1 -1 -1 -1 -1 -1 -1 -1 -1 -1 -1 -1 -1 -1 -1 -1 -1 -1 -1 -1 -1
$$ -1 -1 -1 -1 -1 -1 -1 -1 -1 -1 -1 -1 -1 -1 -1 -1 -1 -1 -1 -1 -1 -1 -1 -1
$$ -1 -1 -1 -1 -1 -1 -1 -1 -1 -1 -1 -1 -1 -1 -1 -1 -1 -1 -1 -1 -1 -1 -1 -1
$$ -1 -1 -1 -1 -1 -1 -1 -1 -1 -1 -1 -1 -1 -1 -1 -1 -1 -1 -1 -1 -1 -1 -1 -1
$$ -1 -1 -1 -1 -1 -1 -1 -1 -1 -1 -1 -1 -1 -1 -1 -1 -1 -1 -1 -1 -1 -1 -1 -1
$$ -1 -1 -1 -1 -1 -1 -1 -1
$$ ##$RG_tab8= (0..127)
$$ -1 -1 -1 -1 -1 -1 -1 -1 -1 -1 -1 -1 -1 -1 -1 -1 -1 -1 -1 -1 -1 -1 -1 -1
$$ -1 -1 -1 -1 -1 -1 -1 -1 -1 -1 -1 -1 -1 -1 -1 -1 -1 -1 -1 -1 -1 -1 -1 -1
$$ -1 -1 -1 -1 -1 -1 -1 -1 -1 -1 -1 -1 -1 -1 -1 -1 -1 -1 -1 -1 -1 -1 -1 -1
$$ -1 -1 -1 -1 -1 -1 -1 -1 -1 -1 -1 -1 -1 -1 -1 -1 -1 -1 -1 -1 -1 -1 -1 -1
$$ -1 -1 -1 -1 -1 -1 -1 -1 -1 -1 -1 -1 -1 -1 -1 -1 -1 -1 -1 -1 -1 -1 -1 -1
$$ -1 -1 -1 -1 -1 -1 -1 -1
$$ ##$RG_tab9= (0..127)
$$ -1 -1 -1 -1 -1 -1 -1 -1 -1 -1 -1 -1 -1 -1 -1 -1 -1 -1 -1 -1 -1 -1 -1 -1
$$ -1 -1 -1 -1 -1 -1 -1 -1 -1 -1 -1 -1 -1 -1 -1 -1 -1 -1 -1 -1 -1 -1 -1 -1
$$ -1 -1 -1 -1 -1 -1 -1 -1 -1 -1 -1 -1 -1 -1 -1 -1 -1 -1 -1 -1 -1 -1 -1 -1
$$ -1 -1 -1 -1 -1 -1 -1 -1 -1 -1 -1 -1 -1 -1 -1 -1 -1 -1 -1 -1 -1 -1 -1 -1
$$ -1 -1 -1 -1 -1 -1 -1 -1 -1 -1 -1 -1 -1 -1 -1 -1 -1 -1 -1 -1 -1 -1 -1 -1
$$ -1 -1 -1 -1 -1 -1 -1 -1
$$ ##$ROBOTTY= <no>
$$ ##$ROUT14= (0..7)
$$ 0 0 0 0 0 0 0 0
$$ ##$ROUTER= 0
$$ ##$RXFMAX= (0..23)
$$ 1290 1290 -1 -1 -1 -1 -1 -1 -1 -1 -1 -1 -1 -1 -1 -1 -1 -1 -1 -1 -1 -1 -1
$$ -1
$$ ##$RXFMIN= (0..23)
$$ 5 5 -1 -1 -1 -1 -1 -1 -1 -1 -1 -1 -1 -1 -1 -1 -1 -1 -1 -1 -1 -1 -1 -1
$$ ##$RheoNmrEth= <no>
$$ ##$SGUC1= (0..23)
$$ 18 17 0 0 0 0 0 0 0 0 0 0 0 0 0 0 0 0 0 0 0 0 0 0
$$ ##$SGUC2= (0..23)
$$ 33 0 0 0 0 0 0 0 0 0 0 0 0 0 0 0 0 0 0 0 0 0 0 0
$$ ##$SLCBCONF= <SHNV>
$$ ##$SPECTR= 13
$$ ##$SYNCTRIG= 0
$$ ##$SamChgEth= (0..3)
$$ <192.168.98.2> <no> <no> <no>
$$ ##$SamChgPort= (0..3)
$$ <80> <no> <no> <no>
$$ ##$SamChgProtocol= (0..3)
$$ <SOAP> <> <> <>
$$ ##$ServiceNo= <>
$$ ##$Sgu10PowerLevel= (0..7)
$$ 0 0 0 0 0 0 0 0
$$ ##$Sgu11PowerLevel= (0..7)
$$ 0 0 0 0 0 0 0 0
$$ ##$Sgu12PowerLevel= (0..7)
$$ 0 0 0 0 0 0 0 0
$$ ##$Sgu13PowerLevel= (0..7)
$$ 0 0 0 0 0 0 0 0
$$ ##$Sgu14PowerLevel= (0..7)
$$ 0 0 0 0 0 0 0 0
$$ ##$Sgu15PowerLevel= (0..7)
$$ 0 0 0 0 0 0 0 0
$$ ##$Sgu16PowerLevel= (0..7)
$$ 0 0 0 0 0 0 0 0
$$ ##$Sgu17PowerLevel= (0..7)
$$ 0 0 0 0 0 0 0 0
$$ ##$Sgu18PowerLevel= (0..7)
$$ 0 0 0 0 0 0 0 0
$$ ##$Sgu19PowerLevel= (0..7)
$$ 0 0 0 0 0 0 0 0
$$ ##$Sgu1PowerLevels= (0..7)
$$ 90 74 58 42 26 10 0 0
$$ ##$Sgu20PowerLevel= (0..7)
$$ 0 0 0 0 0 0 0 0
$$ ##$Sgu21PowerLevel= (0..7)
$$ 0 0 0 0 0 0 0 0
$$ ##$Sgu22PowerLevel= (0..7)
$$ 0 0 0 0 0 0 0 0
$$ ##$Sgu23PowerLevel= (0..7)
$$ 0 0 0 0 0 0 0 0
$$ ##$Sgu24PowerLevel= (0..7)
$$ 0 0 0 0 0 0 0 0
$$ ##$Sgu2PowerLevels= (0..7)
$$ 90 74 58 42 26 10 0 0
$$ ##$Sgu3PowerLevels= (0..7)
$$ 0 0 0 0 0 0 0 0
$$ ##$Sgu4PowerLevels= (0..7)
$$ 0 0 0 0 0 0 0 0
$$ ##$Sgu5PowerLevels= (0..7)
$$ 0 0 0 0 0 0 0 0
$$ ##$Sgu6PowerLevels= (0..7)
$$ 0 0 0 0 0 0 0 0
$$ ##$Sgu7PowerLevels= (0..7)
$$ 0 0 0 0 0 0 0 0
$$ ##$Sgu8PowerLevels= (0..7)
$$ 0 0 0 0 0 0 0 0
$$ ##$Sgu9PowerLevels= (0..7)
$$ 0 0 0 0 0 0 0 0
$$ ##$SguType= 4
$$ ##$ShimMaxVal= 247148
$$ ##$ShimPow1Ch2Sh= (0..38)
$$ 1 2 3 4 13 5 7 11 10 9 6 8 12 23 21 15 20 14 16 17 0 0 0 0 0 0 0 0 0 0
$$ 0 0 0 0 0 0 0 0 0
$$ ##$ShimPow1Imax= (0..38)
$$ 1 1 1 1 1 1 1 1 1 1 1 1 1 1 1 1 1 1 1 1 0 0 0 0 0 0 0 0 0 0 0 0 0 0 0 0
$$ 0 0 0
$$ ##$ShimPow1NChan= 20
$$ ##$ShimPow1TotIMax= 6
$$ ##$ShimPow1Vmax= (0..38)
$$ 20 20 20 20 20 20 20 20 20 20 20 20 20 20 20 20 20 20 20 20 0 0 0 0 0 0
$$ 0 0 0 0 0 0 0 0 0 0 0 0 0
$$ ##$ShimPow2Ch2Sh= (0..38)
$$ 0 0 0 0 0 0 0 0 0 0 0 0 0 0 0 0 0 0 0 0 0 0 0 0 0 0 0 0 0 0 0 0 0 0 0 0
$$ 0 0 0
$$ ##$ShimPow2Imax= (0..38)
$$ 0 0 0 0 0 0 0 0 0 0 0 0 0 0 0 0 0 0 0 0 0 0 0 0 0 0 0 0 0 0 0 0 0 0 0 0
$$ 0 0 0
$$ ##$ShimPow2NChan= 0
$$ ##$ShimPow2TotIMax= 0
$$ ##$ShimPow2Vmax= (0..38)
$$ 0 0 0 0 0 0 0 0 0 0 0 0 0 0 0 0 0 0 0 0 0 0 0 0 0 0 0 0 0 0 0 0 0 0 0 0
$$ 0 0 0
$$ ##$ShimPow3Ch2Sh= (0..38)
$$ 0 0 0 0 0 0 0 0 0 0 0 0 0 0 0 0 0 0 0 0 0 0 0 0 0 0 0 0 0 0 0 0 0 0 0 0
$$ 0 0 0
$$ ##$ShimPow3Imax= (0..38)
$$ 0 0 0 0 0 0 0 0 0 0 0 0 0 0 0 0 0 0 0 0 0 0 0 0 0 0 0 0 0 0 0 0 0 0 0 0
$$ 0 0 0
$$ ##$ShimPow3NChan= 0
$$ ##$ShimPow3TotIMax= 0
$$ ##$ShimPow3Vmax= (0..38)
$$ 0 0 0 0 0 0 0 0 0 0 0 0 0 0 0 0 0 0 0 0 0 0 0 0 0 0 0 0 0 0 0 0 0 0 0 0
$$ 0 0 0
$$ ##$ShimPow4Ch2Sh= (0..38)
$$ 0 0 0 0 0 0 0 0 0 0 0 0 0 0 0 0 0 0 0 0 0 0 0 0 0 0 0 0 0 0 0 0 0 0 0 0
$$ 0 0 0
$$ ##$ShimPow4Imax= (0..38)
$$ 0 0 0 0 0 0 0 0 0 0 0 0 0 0 0 0 0 0 0 0 0 0 0 0 0 0 0 0 0 0 0 0 0 0 0 0
$$ 0 0 0
$$ ##$ShimPow4NChan= 0
$$ ##$ShimPow4TotIMax= 0
$$ ##$ShimPow4Vmax= (0..38)
$$ 0 0 0 0 0 0 0 0 0 0 0 0 0 0 0 0 0 0 0 0 0 0 0 0 0 0 0 0 0 0 0 0 0 0 0 0
$$ 0 0 0
$$ ##$ShimPow5Ch2Sh= (0..38)
$$ 0 0 0 0 0 0 0 0 0 0 0 0 0 0 0 0 0 0 0 0 0 0 0 0 0 0 0 0 0 0 0 0 0 0 0 0
$$ 0 0 0
$$ ##$ShimPow5Imax= (0..38)
$$ 0 0 0 0 0 0 0 0 0 0 0 0 0 0 0 0 0 0 0 0 0 0 0 0 0 0 0 0 0 0 0 0 0 0 0 0
$$ 0 0 0
$$ ##$ShimPow5NChan= 0
$$ ##$ShimPow5TotIMax= 0
$$ ##$ShimPow5Vmax= (0..38)
$$ 0 0 0 0 0 0 0 0 0 0 0 0 0 0 0 0 0 0 0 0 0 0 0 0 0 0 0 0 0 0 0 0 0 0 0 0
$$ 0 0 0
$$ ##$ShimPow6Ch2Sh= (0..38)
$$ 0 0 0 0 0 0 0 0 0 0 0 0 0 0 0 0 0 0 0 0 0 0 0 0 0 0 0 0 0 0 0 0 0 0 0 0
$$ 0 0 0
$$ ##$ShimPow6Imax= (0..38)
$$ 0 0 0 0 0 0 0 0 0 0 0 0 0 0 0 0 0 0 0 0 0 0 0 0 0 0 0 0 0 0 0 0 0 0 0 0
$$ 0 0 0
$$ ##$ShimPow6NChan= 0
$$ ##$ShimPow6TotIMax= 0
$$ ##$ShimPow6Vmax= (0..38)
$$ 0 0 0 0 0 0 0 0 0 0 0 0 0 0 0 0 0 0 0 0 0 0 0 0 0 0 0 0 0 0 0 0 0 0 0 0
$$ 0 0 0
$$ ##$ShimPow7Ch2Sh= (0..38)
$$ 0 0 0 0 0 0 0 0 0 0 0 0 0 0 0 0 0 0 0 0 0 0 0 0 0 0 0 0 0 0 0 0 0 0 0 0
$$ 0 0 0
$$ ##$ShimPow7Imax= (0..38)
$$ 0 0 0 0 0 0 0 0 0 0 0 0 0 0 0 0 0 0 0 0 0 0 0 0 0 0 0 0 0 0 0 0 0 0 0 0
$$ 0 0 0
$$ ##$ShimPow7NChan= 0
$$ ##$ShimPow7TotIMax= 0
$$ ##$ShimPow7Vmax= (0..38)
$$ 0 0 0 0 0 0 0 0 0 0 0 0 0 0 0 0 0 0 0 0 0 0 0 0 0 0 0 0 0 0 0 0 0 0 0 0
$$ 0 0 0
$$ ##$ShimPow8Ch2Sh= (0..38)
$$ 0 0 0 0 0 0 0 0 0 0 0 0 0 0 0 0 0 0 0 0 0 0 0 0 0 0 0 0 0 0 0 0 0 0 0 0
$$ 0 0 0
$$ ##$ShimPow8Imax= (0..38)
$$ 0 0 0 0 0 0 0 0 0 0 0 0 0 0 0 0 0 0 0 0 0 0 0 0 0 0 0 0 0 0 0 0 0 0 0 0
$$ 0 0 0
$$ ##$ShimPow8NChan= 0
$$ ##$ShimPow8TotIMax= 0
$$ ##$ShimPow8Vmax= (0..38)
$$ 0 0 0 0 0 0 0 0 0 0 0 0 0 0 0 0 0 0 0 0 0 0 0 0 0 0 0 0 0 0 0 0 0 0 0 0
$$ 0 0 0
$$ ##$ShimPowMaxUA= (0..63)
$$ 130000 130000 130000 130000 130000 130000 130000 130000 130000 130000 130000
$$ 130000 130000 130000 130000 130000 130000 130000 130000 130000 0 0 0 0
$$ 0 0 0 0 0 0 0 0 0 0 0 0 0 0 0 0 0 0 0 0 0 0 0 0 0 0 0 0 0 0 0 0 0 0 0 0
$$ 0 0 0 0
$$ ##$ShimPowMaxUG= (0..63)
$$ 524287 524287 524287 524287 524287 524287 524287 524287 524287 524287 524287
$$ 524287 524287 524287 524287 524287 524287 524287 524287 524287 0 0 0 0
$$ 0 0 0 0 0 0 0 0 0 0 0 0 0 0 0 0 0 0 0 0 0 0 0 0 0 0 0 0 0 0 0 0 0 0 0 0
$$ 0 0 0 0
$$ ##$ShimPowNum= 1
$$ ##$ShimPowRcbType= 3
$$ ##$ShimPowRes= (0..63)
$$ 1e-20 1e-20 1e-20 1e-20 1e-20 1e-20 1e-20 1e-20 1e-20 1e-20 1e-20 1e-20
$$ 1e-20 1e-20 1e-20 1e-20 1e-20 1e-20 1e-20 1e-20 0 0 0 0 0 0 0 0 0 0 0 0
$$ 0 0 0 0 0 0 0 0 0 0 0 0 0 0 0 0 0 0 0 0 0 0 0 0 0 0 0 0 0 0 0 0
$$ ##$ShimPowRng0= (0..63)
$$ 1 1 1 1 1 1 1 1 1 1 1 1 1 1 1 1 1 1 1 1 0 0 0 0 0 0 0 0 0 0 0 0 0 0 0 0
$$ 0 0 0 0 0 0 0 0 0 0 0 0 0 0 0 0 0 0 0 0 0 0 0 0 0 0 0 0
$$ ##$ShimPowRng1= (0..63)
$$ 1 1 1 1 1 1 1 1 1 1 1 1 1 1 1 1 1 1 1 1 0 0 0 0 0 0 0 0 0 0 0 0 0 0 0 0
$$ 0 0 0 0 0 0 0 0 0 0 0 0 0 0 0 0 0 0 0 0 0 0 0 0 0 0 0 0
$$ ##$ShimPowRng2= (0..63)
$$ 1 1 1 1 1 1 1 1 1 1 1 1 1 1 1 1 1 1 1 1 0 0 0 0 0 0 0 0 0 0 0 0 0 0 0 0
$$ 0 0 0 0 0 0 0 0 0 0 0 0 0 0 0 0 0 0 0 0 0 0 0 0 0 0 0 0
$$ ##$ShimPowRng3= (0..63)
$$ 1 1 1 1 1 1 1 1 1 1 1 1 1 1 1 1 1 1 1 1 0 0 0 0 0 0 0 0 0 0 0 0 0 0 0 0
$$ 0 0 0 0 0 0 0 0 0 0 0 0 0 0 0 0 0 0 0 0 0 0 0 0 0 0 0 0
$$ ##$ShimPowType1= 8
$$ ##$ShimPowType2= 0
$$ ##$ShimPowType3= 0
$$ ##$ShimPowType4= 0
$$ ##$ShimPowType5= 0
$$ ##$ShimPowType6= 0
$$ ##$ShimPowType7= 0
$$ ##$ShimPowType8= 0
$$ ##$ShimSysActGrad= (0..63)
$$ 1 2 3 4 13 5 7 11 10 9 6 8 12 20 21 15 23 14 16 17 0 0 0 0 0 0 0 0 0 0
$$ 0 0 0 0 0 0 0 0 0 0 0 0 0 0 0 0 0 0 0 0 0 0 0 0 0 0 0 0 0 0 0 0 0 0
$$ ##$ShimSysAngle= <>
$$ ##$ShimSysFunc= (0..63)
$$ 1 2 3 4 5 7 9 11 15 16 8 10 12 14 6 17 13 18 19 20 0 0 0 0 0 0 0 0 0 0
$$ 0 0 0 0 0 0 0 0 0 0 0 0 0 0 0 0 0 0 0 0 0 0 0 0 0 0 0 0 0 0 0 0 0 0
$$ ##$ShimSysMatId= <BOSS1>
$$ ##$ShimSysMatrix= 1
$$ ##$ShimSysMinMaxUG= 247148
$$ ##$ShimSysOffset= <771 (SHIM UPPER PART!!!)>
$$ ##$ShimSysType= 1
$$ ##$ShimUnit= 3
$$ ##$SpectrOsVersion= <4.1.166.20220113>
$$ ##$TCubeEth= <192.168.180.38>
$$ ##$TCubeSeqDevice= <>
$$ ##$TOSITY= <no>
$$ ##$TRIPLO2= 0
$$ ##$TopSpinVersion= <TopSpin 4.1.4>
$$ ##$TrxFreqFormula= (0..23)
$$ <TrxFreqFormula(2.0,400130000.000000,'TRX',Trx(1.0,'TRX 1200.1',1,5.000000,1290.000000))>
$$ <TrxFreqFormula(2.0,400130000.000000,'TRX',Trx(1.0,'TRX 1200.2',1,5.000000,1290.000000))>
$$ <> <> <> <> <> <> <> <> <> <> <> <> <> <> <> <> <> <> <> <> <> <>
$$ ##$TrxPN= (0..23)
$$ <Z148391> <Z148391> <> <> <> <> <> <> <> <> <> <> <> <> <> <> <> <> <>
$$ <> <> <> <> <>
$$ ##$TrxSN= (0..23)
$$ <00763> <00728> <> <> <> <> <> <> <> <> <> <> <> <> <> <> <> <> <> <> <>
$$ <> <> <>
$$ ##$VCubeEth= (0..23)
$$ <no> <no> <no> <no> <no> <no> <no> <no> <no> <no> <no> <no> <no> <no> <no>
$$ <no> <no> <no> <no> <no> <no> <no> <no> <no>
$$ ##$VTU= 2
$$ ##$VTUETH= <192.168.99.11>
$$ ##$VTUTY= <no>
$$ ##$ValueLine= no
$$ ##$VpuPN= (0..23)
$$ <no> <no> <no> <no> <no> <no> <no> <no> <no> <no> <no> <no> <no> <no> <no>
$$ <no> <no> <no> <no> <no> <no> <no> <no> <no>
$$ ##$VpuSN= (0..23)
$$ <no> <no> <no> <no> <no> <no> <no> <no> <no> <no> <no> <no> <no> <no> <no>
$$ <no> <no> <no> <no> <no> <no> <no> <no> <no>
$$ ##$WBREFAM= (0..31)
$$ 100 100 100 100 100 100 100 100 100 100 100 100 100 100 100 100 100 100
$$ 100 100 100 100 100 100 100 100 100 100 100 100 100 100
$$ ##$WBREFLM= (0..31)
$$ 1 0 0 0 0 0 0 0 0 0 0 0 0 0 0 0 0 0 0 0 0 0 0 0 0 0 0 0 0 0 0 0
$$ ##$WBREFPH= (0..31)
$$ -0.07 0 0 0 0 0 0 0 0 0 0 0 0 0 0 0 0 0 0 0 0 0 0 0 0 0 0 0 0 0 0 0
$$ ##$WBSGU= (0..31)
$$ 1 1 2 0 0 0 0 0 0 0 0 0 0 0 0 0 0 0 0 0 0 0 0 0 0 0 0 0 0 0 0 0
$$ ##END=
##$RELAX= 
##$BRUKER FILE PROC=clevels
$$ ##TITLE= Parameter file, TopSpin 4.1.4
$$ ##JCAMPDX= 5.0
$$ ##DATATYPE= Parameter Values
$$ ##NPOINTS= 1	$$ modification sequence number
$$ ##ORIGIN= Bruker BioSpin GmbH
$$ ##OWNER= nmrsu
$$ $$ 2023-09-22 15:51:52.660 +0200  nmrsu@nmrf492r
$$ $$ /opt/topspin4.1.4/prog/curdir/changer/inmrchanger/Jul17-2023-1042-nmrsu/6/6.348/data/nmr/aafbf003b303_reference_62-53-3/1/pdata/1/clevels
$$ $$ process /opt/topspin4.1.4/prog/mod/xwish3
$$ ##$LEVELS= (0..255)
$$ 114.44 -114.44 131.45 -131.45 150.99 -150.99 173.43 -173.43 199.21 -199.21
$$ 228.83 -228.83 262.84 -262.84 301.91 -301.91 346.79 -346.79 398.35 -398.35
$$ 457.56 -457.56 525.58 -525.58 603.7 -603.7 693.44 -693.44 796.52 -796.52
$$ 914.92 -914.92 1050.93 -1050.93 1207.15 -1207.15 1386.59 -1386.59 1592.7
$$ -1592.7 0 0 0 0 0 0 0 0 0 0 0 0 0 0 0 0 0 0 0 0 0 0 0 0 0 0 0 0 0 0 0 0
$$ 0 0 0 0 0 0 0 0 0 0 0 0 0 0 0 0 0 0 0 0 0 0 0 0 0 0 0 0 0 0 0 0 0 0 0 0
$$ 0 0 0 0 0 0 0 0 0 0 0 0 0 0 0 0 0 0 0 0 0 0 0 0 0 0 0 0 0 0 0 0 0 0 0 0
$$ 0 0 0 0 0 0 0 0 0 0 0 0 0 0 0 0 0 0 0 0 0 0 0 0 0 0 0 0 0 0 0 0 0 0 0 0
$$ 0 0 0 0 0 0 0 0 0 0 0 0 0 0 0 0 0 0 0 0 0 0 0 0 0 0 0 0 0 0 0 0 0 0 0 0
$$ 0 0 0 0 0 0 0 0 0 0 0 0 0 0 0 0 0 0 0 0 0 0 0 0 0 0 0 0 0 0 0 0 0 0 0 0
$$ 0 0 0 0
$$ ##$LEVSIGN= 3
$$ ##$MAXLEV= 20
$$ ##$METHOD= 0
$$ ##$NEGBASE= -114.44
$$ ##$NEGINCR= 1.8
$$ ##$POSBASE= 114.44
$$ ##$POSINCR= 1.8
$$ ##END=
##$RELAX= 
##$BRUKER FILE PROC=intrng
$$ P 0
$$ 147.053904   146.566430
$$ 130.483400   130.086199
$$ 128.923483   128.501005
$$ 128.501005   128.280739
$$ 119.621757   119.202891
$$ 118.159335   117.946291
$$ 117.942680   117.599643
$$ 116.310545   115.902511
$$ 114.772294   114.328151
$$ 88.575080   88.340371
$$ 78.182857   78.023977
$$ 78.020366   77.727881
$$ 77.724271   77.467895
$$ 77.464284   77.374011
$$ 77.370401   77.074305
$$ 71.307669   71.040461
##$RELAX= 
##$BRUKER FILE PROC=peaklist.xml
$$ <?xml version="1.0" encoding="UTF-8"?>
$$ <PeakList>
$$   <PeakList1D>
$$     <PeakList1DHeader creator="nmrsu" date="2023-09-23T20:49:33.311+02:00" expNo="1" name="aafbf003b303_reference_62-53-3" owner="" procNo="1" source="/opt/data/apprentis.isic@epfl.ch/nmr">
$$       <PeakPickDetails>F1=218.322601ppm, F2=-18.322548ppm, MI=0.00cm, MAXI=10000.00cm, PC=1.000
$$       </PeakPickDetails>
$$     </PeakList1DHeader>
$$     <Peak1D F1="146.900406" intensity="3.224750e+00" type="0"/>
$$     <Peak1D F1="146.815720" intensity="6.644464e+00" type="0"/>
$$     <Peak1D F1="146.732544" intensity="3.329279e+00" type="0"/>
$$     <Peak1D F1="130.345428" intensity="1.377281e+01" type="0"/>
$$     <Peak1D F1="130.327347" intensity="1.424513e+01" type="0"/>
$$     <Peak1D F1="130.258926" intensity="1.031561e+01" type="0"/>
$$     <Peak1D F1="130.248932" intensity="1.025390e+01" type="0"/>
$$     <Peak1D F1="128.783539" intensity="1.041485e+01" type="0"/>
$$     <Peak1D F1="128.778122" intensity="1.138692e+01" type="0"/>
$$     <Peak1D F1="128.766357" intensity="1.083111e+01" type="0"/>
$$     <Peak1D F1="128.760757" intensity="1.046880e+01" type="0"/>
$$     <Peak1D F1="128.699081" intensity="1.493325e+01" type="0"/>
$$     <Peak1D F1="128.681213" intensity="1.500000e+01" type="0"/>
$$     <Peak1D F1="128.391266" intensity="3.999845e-01" type="0"/>
$$     <Peak1D F1="119.481651" intensity="2.763494e+00" type="0"/>
$$     <Peak1D F1="119.472473" intensity="4.549502e+00" type="0"/>
$$     <Peak1D F1="119.399635" intensity="9.509326e+00" type="0"/>
$$     <Peak1D F1="119.326576" intensity="4.361827e+00" type="0"/>
$$     <Peak1D F1="119.317772" intensity="2.933697e+00" type="0"/>
$$     <Peak1D F1="117.979897" intensity="3.169078e-01" type="0"/>
$$     <Peak1D F1="117.876022" intensity="4.821384e+00" type="0"/>
$$     <Peak1D F1="117.803322" intensity="1.009375e+01" type="0"/>
$$     <Peak1D F1="117.794228" intensity="5.833439e+00" type="0"/>
$$     <Peak1D F1="117.737938" intensity="2.907225e+00" type="0"/>
$$     <Peak1D F1="117.730042" intensity="4.498199e+00" type="0"/>
$$     <Peak1D F1="117.721451" intensity="3.111309e+00" type="0"/>
$$     <Peak1D F1="116.184738" intensity="2.181819e+00" type="0"/>
$$     <Peak1D F1="116.164856" intensity="1.141676e+01" type="0"/>
$$     <Peak1D F1="116.145454" intensity="2.425300e+00" type="0"/>
$$     <Peak1D F1="116.124748" intensity="4.695013e+00" type="0"/>
$$     <Peak1D F1="116.111435" intensity="9.367140e+00" type="0"/>
$$     <Peak1D F1="116.098251" intensity="5.892370e+00" type="0"/>
$$     <Peak1D F1="116.086975" intensity="1.202114e+01" type="0"/>
$$     <Peak1D F1="116.063927" intensity="1.974276e+00" type="0"/>
$$     <Peak1D F1="116.046402" intensity="4.530288e+00" type="0"/>
$$     <Peak1D F1="116.033989" intensity="8.312222e+00" type="0"/>
$$     <Peak1D F1="116.020828" intensity="4.396681e+00" type="0"/>
$$     <Peak1D F1="114.628761" intensity="4.834058e+00" type="0"/>
$$     <Peak1D F1="114.615402" intensity="9.095144e+00" type="0"/>
$$     <Peak1D F1="114.602386" intensity="4.799909e+00" type="0"/>
$$     <Peak1D F1="114.582321" intensity="2.629222e+00" type="0"/>
$$     <Peak1D F1="114.561951" intensity="1.253187e+01" type="0"/>
$$     <Peak1D F1="114.550568" intensity="6.233556e+00" type="0"/>
$$     <Peak1D F1="114.537666" intensity="9.470367e+00" type="0"/>
$$     <Peak1D F1="114.524719" intensity="5.175231e+00" type="0"/>
$$     <Peak1D F1="114.507027" intensity="2.241345e+00" type="0"/>
$$     <Peak1D F1="114.484390" intensity="1.295082e+01" type="0"/>
$$     <Peak1D F1="114.461510" intensity="1.713099e+00" type="0"/>
$$     <Peak1D F1="99.638428" intensity="3.043249e-01" type="0"/>
$$     <Peak1D F1="88.443848" intensity="3.296884e-01" type="0"/>
$$     <Peak1D F1="77.895844" intensity="1.186393e+01" type="0"/>
$$     <Peak1D F1="77.576530" intensity="1.220932e+01" type="0"/>
$$     <Peak1D F1="77.257149" intensity="1.180559e+01" type="0"/>
$$     <Peak1D F1="66.237602" intensity="3.037339e-01" type="0"/>
$$     <Peak1D F1="1.619256" intensity="3.144680e-01" type="0"/>
$$   </PeakList1D>
$$ </PeakList>
##$RELAX= 
##$BRUKER FILE PROC=peakrng
$$ P    #regions in PPM
$$ # 2023-09-23 20:49:33 +0200  nmrsu@nmrf492r
$$ # low field   high field   mi   maxi
$$   218.322601318359  -18.3225486578211  0.000  10000.000  # for region 1
##$RELAX= 
$$ Bruker specific parameters
$$ --------------------------
##$DATPATH= </opt/data/apprentis.isic@epfl.ch/nmr>
##$EXPNO= 1
##$NAME= <aafbf003b303_reference_62-53-3>
##$PROCNO= 1
##$ACQT0= -1.70581753891579
##$AMP= (0..31)
100 100 100 100 100 100 100 100 100 100 100 100 100 100 100 100 100 100
100 100 100 100 100 100 100 100 100 100 100 100 100 100
##$AMPCOIL= (0..32)
-1 0 0 0 0 0 0 0 0 0 0 0 0 0 0 0 0 0 0 0 0 0 0 0 0 0 0 0 0 0 0 0 0
##$AQSEQ= 0
##$AQ_mod= 3
##$AUNM= <au_zg>
##$AUTOPOS= <6 >
##$BF1= 100.612769
##$BF2= 400.13
##$BF3= 400.13
##$BF4= 400.13
##$BF5= 400.13
##$BF6= 400.13
##$BF7= 400.13
##$BF8= 400.13
##$BWFAC= (0..63)
0 0 0 0 0 0 0 0 0 0 0 0 0 0 0 0 0 0 0 0 0 0 0 0 0 0 0 0 0 0 0 0 0 0 0 0
0 0 0 0 0 0 0 0 0 0 0 0 0 0 0 0 0 0 0 0 0 0 0 0 0 0 0 0
##$BYTORDA= 0
##$CHANFCU= (0..24)
0 2 1 0 0 0 0 0 0 0 0 0 0 0 0 0 0 0 0 0 0 0 0 0 0
##$CHANREC= (0..24)
0 2 1 0 0 0 0 0 0 0 0 0 0 0 0 0 0 0 0 0 0 0 0 0 0
##$CHEMSTR= <none>
##$CNST= (0..63)
1 1 1 1 1 1 1 1 1 1 1 1 1 1 1 1 1 1 1 1 1 1 1 1 1 1 1 1 1 1 1 1 1 1 1 1
1 1 1 1 1 1 1 1 1 1 1 1 1 1 1 1 1 1 1 1 1 1 1 1 1 1 1 1
##$CPDPRG= (0..8)
<> <> <waltz16> <> <> <> <> <> <>
##$D= (0..63)
0 2 0 0 0 0 0 0 0 0 0 0 0 0 0 0 0.0002 0 0 0 0 0 0 0 0 0 0 0 0 0 0 0 0
0 0 0 0 0 0 0 0 0 0 0 0 0 0 0 0 0 0 0 0 0 0 0 0 0 0 0 0 0 0 0
##$DATE= 1695494979
##$DATE_START= 1695494091
##$DE= 8.794183
##$DECBNUC= <off>
##$DECIM= 840
##$DECNUC= <off>
##$DECSTAT= 4
##$DIGMOD= 3
##$DIGTYP= 17
##$DR= 32
##$DS= 4
##$DSPFIRM= 4
##$DSPFVS= 21
##$DTYPA= 2
##$EXP= <refe_1d_13_zg_{nodec}>
##$ExpStatus= 4
##$FCUCHAN= (0..9)
0 2 1 0 0 0 0 0 0 0
##$FILCOR= 0
##$FL1= 0
##$FL2= 0
##$FL3= 0
##$FL4= 0
##$FN_INDIRECT= (0..7)
0 0 0 0 0 0 0 0
##$FOV= 0
##$FQ1LIST= <>
##$FQ2LIST= <>
##$FQ3LIST= <>
##$FQ4LIST= <>
##$FQ5LIST= <>
##$FQ6LIST= <>
##$FQ7LIST= <>
##$FQ8LIST= <>
##$FS= (0..7)
83 83 83 83 83 83 83 83
##$FTLPGN= 0
##$FW= 2.4e+08
##$FnILOOP= 0
##$FnMODE= 0
##$FnTYPE= 0
##$GPNAM= (0..31)
<> <> <> <> <> <> <> <> <> <> <> <> <> <> <> <> <> <> <> <> <> <> <> <>
<> <> <> <> <> <> <> <>
##$GPX= (0..31)
0 0 0 0 0 0 0 0 0 0 0 0 0 0 0 0 0 0 0 0 0 0 0 0 0 0 0 0 0 0 0 0
##$GPY= (0..31)
0 0 0 0 0 0 0 0 0 0 0 0 0 0 0 0 0 0 0 0 0 0 0 0 0 0 0 0 0 0 0 0
##$GPZ= (0..31)
0 0 0 0 0 0 0 0 0 0 0 0 0 0 0 0 0 0 0 0 0 0 0 0 0 0 0 0 0 0 0 0
##$GRPDLY= 76
##$HDDUTY= 20
##$HDRATE= 1
##$HGAIN= (0..3)
0 0 0 0
##$HL1= 0
##$HL2= 0
##$HL3= 0
##$HL4= 0
##$HOLDER= 6
##$HPMOD= (0..32)
0 0 0 0 0 0 0 0 0 0 0 0 0 0 0 0 0 0 0 0 0 0 0 0 0 0 0 0 0 0 0 0 0
##$HPPRGN= 0
##$IN= (0..63)
0 0 0 0 0 0 0 0 0 0 0 0 0 0 0 0 0 0 0 0 0 0 0 0 0 0 0 0 0 0 0 0 0 0 0 0
0 0 0 0 0 0 0 0 0 0 0 0 0 0 0 0 0 0 0 0 0 0 0 0 0 0 0 0
##$INF= (0..7)
0 0 0 0 0 0 0 0
##$INP= (0..63)
0 0 0 0 0 0 0 0 0 0 0 0 0 0 0 0 0 0 0 0 0 0 0 0 0 0 0 0 0 0 0 0 0 0 0 0
0 0 0 0 0 0 0 0 0 0 0 0 0 0 0 0 0 0 0 0 0 0 0 0 0 0 0 0
##$INSTRUM= <AV4 400 MHZ>
##$INTEGFAC= (0..63)
0 0 0 0 0 0 0 0 0 0 0 0 0 0 0 0 0 0 0 0 0 0 0 0 0 0 0 0 0 0 0 0 0 0 0 0
0 0 0 0 0 0 0 0 0 0 0 0 0 0 0 0 0 0 0 0 0 0 0 0 0 0 0 0
##$L= (0..31)
1 1 1 1 1 1 1 1 1 1 1 1 1 1 1 1 1 1 1 1 1 1 1 1 1 1 1 1 1 1 1 1
##$LFILTER= 100
##$LGAIN= -12
##$LINPSTP= 0
##$LOCKED= yes
##$LOCKFLD= 6746
##$LOCKGN= 127.712448120117
##$LOCKPOW= -30
##$LOCKPPM= 7.23999977111816
##$LOCNUC= <2H>
##$LOCPHAS= 341.1
##$LOCSHFT= yes
##$LOCSW= 0
##$LTIME= 0.400000005960464
##$MASR= 4200
##$MULEXPNO= (0..15)
0 0 0 0 0 0 0 0 0 0 0 0 0 0 0 0
##$NBL= 1
##$NC= 0
##$NLOGCH= 2
##$NOVFLW= 0
##$NS= 256
##$NUC1= <13C>
##$NUC2= <1H>
##$NUC3= <off>
##$NUC4= <off>
##$NUC5= <off>
##$NUC6= <off>
##$NUC7= <off>
##$NUC8= <off>
##$NUCLEUS= <off>
##$NUSLIST= <automatic>
##$NusAMOUNT= 100
##$NusFPNZ= no
##$NusJSP= 0
##$NusSEED= 54321
##$NusSPTYPE= 0
##$NusT2= 1
##$NusTD= 0
##$O1= 10061.2769
##$O2= 1600.52
##$O3= 1880.61
##$O4= 1880.61
##$O5= 1880.61
##$O6= 1880.61
##$O7= 1880.61
##$O8= 1880.61
##$OVERFLW= 0
##$P= (0..63)
3.333333 10 20 14 28 16.5 25 50 525 30 60 40000 40000 2000 0 0 1000 2000
500 600 2500 0 0 0 1000 0 500 10 1000 2000 0 0 5550 0 0 0 80000 0 0 2550
4000 0 0 10000 1110 0 40000 1575 3000 3900 3150 0 2119 20000 525 0 0 0
0 0 0 0 0 2100
##$PACOIL= (0..32)
2 3 1 0 0 0 0 0 0 0 0 0 0 0 0 0 0 0 0 0 0 0 0 0 0 0 0 0 0 0 0 0 0
##$PAPS= 0
##$PARMODE= 0
##$PCPD= (0..9)
0 80 90 0 0 0 0 0 0 0
##$PEXSEL= (0..9)
1 1 1 1 1 1 1 1 1 1
##$PHCOR= (0..31)
0 0 0 0 0 0 0 0 0 0 0 0 0 0 0 0 0 0 0 0 0 0 0 0 0 0 0 0 0 0 0 0
##$PHLIST= <>
##$PH_ref= 0
##$PL= (0..63)
120 120 120 120 120 120 120 120 120 120 120 120 120 120 120 120 120 120
120 120 120 120 120 120 120 120 120 120 120 120 120 120 120 120 120 120
120 120 120 120 120 120 120 120 120 120 120 120 120 120 120 120 120 120
120 120 120 120 120 120 120 120 120 120
##$PLSTEP= 0.1
##$PLSTRT= -6
##$PLW= (0..63)
0 53.518 13.806 0 0 0 0 0 0 0 8.5629 0.34252 0.33407 0.16804 0 3.0066 0
0 53.518 0.83622 0 0.00010824 0 0 0.0017318 0 0.083518 0 0 8.5629 0.33407
1.3363 0 0 0 0 0 0 0 0 0 0 0 0 0 0 0 0 0 0 0 0 0 0 0 0 0 0 0 0 0 0 0 0
##$PLWMAX= (0..7)
541.0441 105.5741 0 0 0 0 0 0
##$PQPHASE= 0
##$PQSCALE= 1
##$PR= 1
##$PRECHAN= (0..32)
-1 2 -1 0 1 -1 -1 -1 -1 -1 -1 -1 -1 -1 -1 -1 -1 -1 -1 -1 -1 -1 -1 -1 -1
-1 -1 -1 -1 -1 -1 -1 -1
##$PROBHD= <Z108618_0808 (PA BBO 400S1 BBF-H-D-05 Z)>
##$PROBINPUTS= (0..15)
<19F-109Ag> <1H> <2H> <> <> <> <> <> <> <> <> <> <> <> <> <>
##$PULPROG= <zg30>
##$PW= 0
##$PYNM= <>
##$ProjAngle= 0
##$QNP= 0
##$RECCHAN= (0..9)
0 2 1 0 0 0 0 0 0 0
##$RECPH= 0
##$RECPRE= (0..24)
-1 0 2 -1 -1 -1 -1 -1 -1 -1 -1 -1 -1 -1 -1 -1 -1 -1 -1 -1 -1 -1 -1 -1 -1
##$RECPRFX= (0..32)
1 0 1 0 0 0 0 0 0 0 0 0 0 0 0 0 0 0 0 0 0 0 0 0 0 0 0 0 0 0 0 0 0
##$RECSEL= (0..24)
0 1 2 0 0 0 0 0 0 0 0 0 0 0 0 0 0 0 0 0 0 0 0 0 0
##$RG= 64
##$RO= 0
##$RSEL= (0..24)
0 1 2 0 0 0 0 0 0 0 0 0 0 0 0 0 0 0 0 0 0 0 0 0 0
##$SAMPLEID= <>
##$SELREC= (0..24)
0 0 0 0 0 0 0 0 0 0 0 0 0 0 0 0 0 0 0 0 0 0 0 0 0
##$SFO1= 100.6228302769
##$SFO2= 400.13160052
##$SFO3= 400.13188061
##$SFO4= 400.13188061
##$SFO5= 400.13188061
##$SFO6= 400.13188061
##$SFO7= 400.13188061
##$SFO8= 400.13188061
##$SOLVENT= <CDCl3>
##$SOLVOLD= <off>
##$SP= (0..63)
120 120 120 120 120 120 120 120 120 120 120 120 120 120 120 120 120 120
120 120 120 120 120 120 120 120 120 120 120 120 120 120 120 120 120 120
120 120 120 120 120 120 120 120 120 120 120 120 120 120 120 120 120 120
120 120 120 120 120 120 120 120 120 120
##$SPECTR= 0
##$SPINCNT= 0
##$SPNAM= (0..63)
<> <Q5.1000> <Q3_surbop.1> <0.0> <Eburp2tr.1000> <Crp60comp.4> <Crp60,0.5,20.1>
<Sinc1.1000> <Crp60,0.5,20.1> <> <Crp60comp.4> <Crp60comp.4> <> <> <Eburp2.1000>
<> <> <> <0.0> <Q5tr_sebop.1> <Q5tr_sebop.1> <Q5tr_sebop.1> <Q5tr_sebop.1>
<> <> <> <Gaus1_180r.1000> <> <> <Q5tr.1000> <Q3_surbop.1> <Reburp.1000>
<Q3.1000> <Q5_sebop.1> <Q3_surbop.1> <Q3_surbop.1> <Q5.1000> <Q3_rna_c68c1.1>
<> <> <Q3_surbop.1> <Crp60,0.5,20.1> <> <> <Crp60,20,20.10> <> <Crp60_xfilt.2>
<> <> <> <> <> <> <> <> <> <> <> <> <0.0> <0.0> <0.0> <> <>
##$SPOAL= (0..63)
0.5 1 0.5 0.5 0 0.5 0.5 0.5 0.5 0.5 0.5 0.5 0.5 0.5 1 0.5 0.5 0.5 0.5 0
0 0 0 0.5 0.5 0.5 0.5 0.5 0.5 0 0.5 0.5 0.5 1 0.5 0.5 1 0.5 0.5 0.5 0.5
0.5 0.5 0.5 0.5 0.5 0.5 0.5 0.5 0.5 0.5 0.5 0.5 0.5 0.5 0.5 0.5 0.5 0.5
0.5 0.5 0.5 0.5 0.5
##$SPOFFS= (0..63)
0 0 0 0 0 0 0 0 0 0 0 0 0 0 0 0 0 0 0 0 0 0 0 0 0 0 0 0 0 0 0 0 0 0 0 0
0 0 0 0 0 0 0 0 0 0 0 0 0 0 0 0 0 0 0 0 0 0 0 0 0 0 0 0
##$SPPEX= (0..63)
0 0 0 0 0 0 0 0 0 0 0 0 0 0 0 0 0 0 0 0 0 0 0 0 0 0 0 0 0 0 0 0 0 0 0 0
0 0 0 0 0 0 0 0 0 0 0 0 0 0 0 0 0 0 0 0 0 0 0 0 0 0 0 0
##$SPW= (0..63)
0 0.0011257 0.00092168 0 0.12085 8.1769 0 0.0078026 8.1769 0 8.1769 8.1769
0 0 0.12085 0 0 0 0 7.081919 11.00861 5.140243 27.7209 0 0 0 9.9839e-06
0 0 0.058474 1.1969 0.37007 0.0047171 8.6682 0.59448 0.00092168 0.20013
0.24535 0 0 0.14862 8.1769 0 0 0.10336 0 1.5752 0 0 0 0 0 0 0 0 0 0 0 0
0 0 0 0 0
##$SUBNAM= (0..9)
<> <> <> <> <> <> <> <> <> <>
##$SW= 236.621487827398
##$SWIBOX= (0..32)
0 3 1 0 0 0 0 0 0 0 0 0 0 0 0 0 0 0 0 0 0 0 0 0 0 0 0 0 0 0 0 0 0
##$SW_h= 23809.5238095238
##$SWfinal= 0
##$SigLockShift= 0
##$TD= 65536
##$TD0= 1
##$TD_INDIRECT= (0..7)
0 0 0 0 0 0 0 0
##$TDav= 1
##$TE= 297.9992
##$TE1= 298.2691
##$TE2= 0
##$TE3= 0
##$TE4= 0
##$TEG= 300
##$TE_MAGNET= 0
##$TE_PIDX= 1
##$TE_RAW= 298.2691
##$TE_STAB= (0..9)
1 1 0 0 0 0 0 0 0 0
##$TOTROT= (0..63)
0 0 0 0 0 0 0 0 0 0 0 0 0 0 0 0 0 0 0 0 0 0 0 0 0 0 0 0 0 0 0 0 0 0 0 0
0 0 0 0 0 0 0 0 0 0 0 0 0 0 0 0 0 0 0 0 0 0 0 0 0 0 0 0
##$TUBE_TYPE= <>
##$USERA1= <>
##$USERA10= <>
##$USERA2= <>
##$USERA3= <>
##$USERA4= <>
##$USERA5= <>
##$USERA6= <>
##$USERA7= <>
##$USERA8= <>
##$USERA9= <>
##$UUID= <092316c9-7033-40cd-91a4-0247ac5079df>
##$V9= 5
##$VALIDCODE= -1
##$VALIST= <>
##$VCLIST= <>
##$VDLIST= <>
##$VPLIST= <>
##$VTLIST= <>
##$WAVEMAKER= (0..7)
<> <> <> <> <> <> <> <>
##$WBST= 1024
##$WBSW= (0..7)
20 10 10 10 10 10 10 10
##$XGAIN= (0..3)
0 0 0 0
##$XL= 0
##$YL= 0
##$YMAX_a= 1114582.6015625
##$YMIN_a= -877102.1796875
##$ZGOPTNS= <>
##$ZL1= 120
##$ZL2= 120
##$ZL3= 120
##$ZL4= 120
##$scaledByNS= no
##$scaledByRG= yes
##$shimCoilTempK= 304.15
##$ABSF1= 218.3226
##$ABSF2= -18.32256
##$ABSG= 5
##$ABSL= 3
##$ALPHA= 0
##$AQORDER= 0
##$ASSFAC= 0
##$ASSFACI= 0
##$ASSFACX= 0
##$ASSWID= 0
##$AUNMP= <proc_1d>
##$AXLEFT= 0
##$AXNAME= <>
##$AXNUC= <13C>
##$AXRIGHT= 0
##$AXTYPE= 0
##$AXUNIT= <>
##$AZFE= 0.1
##$AZFW= 0.1
##$BCFW= 0
##$BC_mod= 0
##$BYTORDP= 0
##$COROFFS= 0
##$CY= 15
##$DATMOD= 1
##$DC= 0
##$DFILT= <>
##$DTYPP= 0
##$ERETIC= no
##$F1P= 0
##$F2P= 0
##$FCOR= 1
##$FTSIZE= 65536
##$FT_mod= 6
##$GAMMA= 0
##$GB= 0
##$INTBC= 1
##$INTSCL= 1
##$ISEN= 128
##$LB= 0.3
##$LEV0= 0
##$LPBIN= 0
##$MAXI= 10000
##$MC2= 0
##$MEAN= 0
##$ME_mod= 0
##$MI= 0
##$MddCEXP= no
##$MddCT_SP= no
##$MddF180= no
##$MddLAMBDA= 0
##$MddMEMORY= 0
##$MddMERGE= 0
##$MddNCOMP= 0
##$MddNITER= 0
##$MddNOISE= 0
##$MddPHASE= 0
##$MddSEED= 0
##$MddSRSIZE= 0
##$Mdd_CsALG= 0
##$Mdd_CsLAMBDA= 0
##$Mdd_CsNITER= 0
##$Mdd_CsNORM= 0
##$Mdd_CsVE= no
##$Mdd_CsZF= 0
##$Mdd_LrLAMBDA= 0
##$Mdd_LrNITER= 0
##$Mdd_LrRANK= 0
##$Mdd_LrZF= 0
##$Mdd_mod= 0
##$NCOEF= 0
##$NC_proc= 0
##$NLEV= 6
##$NOISF1= 8.174992
##$NOISF2= 6.675002
##$NSP= 0
##$NTH_PI= 0
##$NZP= 0
##$OFFSET= 218.3226
##$PC= 1
##$PHC0= 62.14
##$PHC1= 0
##$PH_mod= 1
##$PKNL= yes
##$PPARMOD= 0
##$PPDIAG= 0
##$PPIPTYP= 0
##$PPMPNUM= 2147483647
##$PPRESOL= 1
##$PSCAL= 4
##$PSIGN= 0
##$PYNMP= <proc.py>
##$RDF1= 0
##$RDF2= 0
##$RDFWHM= 0
##$RDINT= 0
##$RDPOS= 0
##$REVERSE= no
##$SF= 100.612769
##$SI= 65536
##$SIGF1= 5.6
##$SIGF2= 5.2
##$SINO= 0
##$SIOLD= 65536
##$SPECTYP= <>
##$SREF_mod= 1
##$SREGLST= <13C.CDCl3>
##$SSB= 0
##$STSI= 65536
##$STSR= 0
##$SW_p= 23809.5238095238
##$SYMM= 0
##$S_DEV= 0
##$TDeff= 65536
##$TDoff= 0
##$TI= <>
##$TILT= no
##$TM1= 0
##$TM2= 0
##$TOPLEV= 0
##$USERP1= <>
##$USERP10= <>
##$USERP2= <>
##$USERP3= <>
##$USERP4= <>
##$USERP5= <>
##$USERP6= <>
##$USERP7= <>
##$USERP8= <>
##$USERP9= <>
##$WDW= 1
##$XDIM= 65536
##$YMAX_p= 402585536
##$YMIN_p= -9158319
##$CURPLOT= <>
##$CURPRIN= <$>
##$DFORMAT= <normdp>
##$LAYOUT= <+/1D_H.xwp>
##$LFORMAT= <normlp>
##$PFORMAT= <normpl>
$$ End of Bruker specific parameters
$$ ---------------------------------
##NTUPLES= NMR SPECTRUM
##VAR_NAME=  FREQUENCY,     SPECTRUM/REAL,   SPECTRUM/IMAG
##SYMBOL=    X,             R,               I
##VAR_TYPE=  INDEPENDENT,   DEPENDENT,       DEPENDENT
##VAR_FORM=  AFFN,          ASDF,            ASDF
##VAR_DIM=   65536,         65536,           65536
##UNITS=     HZ,            ARBITRARY UNITS, ARBITRARY UNITS
##FACTOR=    0.363304501488095, 1,           1
##FIRST=     23809.1605050223, -867586,      -4151515
##LAST=      0,             1920787,         -1847835
##MIN=       0,             -9158319,        -877102.1796875
##MAX=       23809.1605050223, 402585536,    1114582.6015625
$$ Real data points
##PAGE= N=1
##DATA TABLE= (X++(R..R)), XYDATA
65535h67586l829528b220082O46850c57326E90521f6510j699305b15850A618935
65525B916487j356006E76708J331423p79187l41419a001639j156620l20901f13074
65515A715612c98475j202942A133387k17347a241347H63735c8400p8766D55912
65505a031779M75380C96924A98148J331247c33338k136269A174107N75457C78331
65495H70283B04306h23725E79889f55950F43055L020l8591J871278E41360k39376
65485C01984g71445B562210q23127k90258a365339l14934a19103j719926O18722
65476a220307e97579h78B473313J2088J180765A415393d19606k82685A384619
65466e35915A813258L13062K291647j296747j17776A294814a724893k95467K5626
65457a994734M76665b01298E99021O22195c31944j480935c35948B876729j096348
65448A780381n74602E21123e24286r38863e38110D07424b05305A111142h486k85374
65438b93860A845378R06764B4952g32042D78056k13395h18005j014158C35025
65428B66258a498221A517148j99017n27137c18722l86334A669176G23088Q68099
65419A591187M26669b538407P57045H00957a40673D55574K80204J070537q20997
65410I85318a409666Q3516b06392E19471J00488J802473p03494p91663Q17593
65401A744868a394169a16884o10242p80169k58272j634875e31928q40709A43359
65391a513247A82953L21672a774259d11277k526405i43983c31255r12055m00450
65382a643760L32728a32617j877970E29388R37895e93501l407952a961652R26977
65373a034675k361149K04741a217726l58441B144909E14720J059888C34160f28464
65363b99575j39032A14009a128189A404820B33270a168391H69289k16302Q21520
65354A474507F04320N90973J287975l36930p10826O86856j94936g31124l92786
65345a123910J22959L57535A299930a107421A364482a489885K96139A447887n90930
65336H56957g69069D7017a023510B77166J640087M21634e70054j642040m94832
65327b706926c48767m37252k800356A273774o06842N5503c23872A450986n32113
65318I18873J61566J512191g0772B5569d15528B227066M28101L50221F34477k61137
65308C73340N22092e09678k395475j320354J626735D48047K0302j40773a201243
65298a715914K07944A106561n2978D2721h47154q09752j357432B075063f95097
65288g36939l26136A376006b73108A922760k77630a17808r4244j744366A77389
65278I32898C61684J51120M249117a065606j00435A703089p45899b985172p60683
65269c745855P94352G53414g35932k68238k259004O34548O33718J06128K94172
65260a594608j341716K28996g88054n74661e04318A791342H30497J231510K960992
65251E022999B239769f32373D00851C5823K883375a92428h1497D00144c95779
65241b34141j371215B84046J180442C54929J208230A78843d088320a135077N25742
65232f09335L5018e1904j042460b25651D45415a574982g55298l047485J029921
65223b772862J84644R4958M0952a048740H96303l1047l34879k03353e46714E57759
65212E65484P68357b05399A018945K038445i98737A33958g12577k30193A857180
65202A185885J413294J098183j792846J512550j16291J41833M8165j470277j19586
65193A900910q14138J73825C73036K00022A9759J296634L88202K071673M34421
65184D210689f14186D03606d69254j009191E44574b151384b10905F08039g27659
65174A109240l10379J69912R73324I217a818764B75253d717H40859R99963a507551
65163d367795a931497P38000j490506R44804m22129Q85063e48728k192312J151918
65154a589122e05041l92992A86636K26671i11142C25108g76236B780837A249582
65144I23985c017939J134773B293934m57377f7610m73118k213874J244852j043437
65135b553187J260981k12539F3637b291836k32858N58051p67690a154641A473846
65125B455529A153549l14538a690266j845113m71571J666804f74170K07199k036186
65116b503157a07989H63107N75799a53417j558637c39645m36388A990155J117144
65107C107299d66568j802436O12001c72876l044709e79017A868323g10509I64311
65097a598369K49934a54736B306223r16275h33871F60305k60851R15474K69357
65088A584285Q09157B34403J098439f3020o49389A35785K49612a333403L44114
65079i89289A550188G02341g15834q76238j531037N95119h85862D63200a202957
65069a659313D94132b324835j86503C92426d24234C94752c53722j056391B15697
65059B01052a065221K42684C945729A051118K560489A333025P59131p05760b015414
65049b255855L27835d64405n13529B002943m8034a140835j001060B144083J326581
65040C470664b23830k37077B451327a157461H08536a000518d17580k750817B64855
65030B589429K379847A629015G33948L94247D11595a042712l1363K12464G20425
65020i71651A288961L55386l02597N89320b061489j022354J105406E01786J097181
65011A598967Q51971j147233b604002J285778A870850D74520K325079e66844j124430
65002a691274p79105a207595o00199b25115B344357n61441i42602j273994n01380
64993b717976a083517l124236a256960C23249G2532c32356p9292A899415E10188
64983g95667I72257J290561C50044K57073k04296g912j019299A229328D57400
64973E02684b418914j589D18070l3073R22676M11390F04260M9016b167145N01099
64963a666046F40944i28551A195107a153583l432925p52776A197724N19710k62317
64954A455117a912685Q15211m59151O36954B057717a749982j072719J16896L02458
64945b403347Q71950J31572N54329B289720e13525A009763h52382L91006j15786
64936e77162J02821o3837C361415a64926G50193A12597b576522i87482j81180
64927a168662j485133a179343l58170L18646B785771H51220c36249r03129N04010
64918g35368j107122a44673C34979c965555G12965c25085C6066K51215o4501K927367
64908C150147A428805a30225j244446k047277N22414D8535a642735B55829b137905
64898b090060n92236c51090C259305A182961b111877k175138a096172C16980a590463
64888c595806J637747P26671k133276D47725Q59941J043727A158556J779298E7773
64878B31128K745387J172102l48790F51306J023612C62021b209955L92746G3984
64868c64154F60327b537749f42984k864217J602285f61249b81057I99g5597A415203
64857B39733O83659a646087k09284O85819h2715o00712m79886A973350a827672
64847A6187d6196o38264A382970K64065e75359l236151r45141a761842e57868
64837c151817a409197B954605H53766L113271A510500b86247B203833i71704j091732
64828b063436f98721B025421q24725c414881N23858K66902f87325B411233p31851
64819A679382b05083B95215L203683L45787b8942j889062A787197j14575m91712
64810A180910J052487N33492J323895a04614j069549F0294a97869A79531L594533
64801C774064q82331G52130H672J405177o59919J684612D10753f86343l64766
64792a051109c03202j764182o34414A331376N92444H33209J235927N86032A54319
64782D50217M3326J098025J455810r6073a908779p21532M21914I0451a187510
64772a278036L75567k03765d44466k08086A781467a5536j416489B234396J702578
64763C936974A695812c56499j466057o7349A644615k5190M91340c85265l434563
64754c819828g03136k704260M13960d17472k463247a160366a65392F65820Q88427
64745A554247o66288L89355d46381r02092A547052B67765f92688n73510A995533
64735A154411B33588J068461Q09714a240508q52910k60373f99481E65800b062463
64725d187323J264584q11845e49716A93721J685481F8888b377328O59397O67433
64716a050498D71987a535713k162243A270487a727479K78131j51552D46382P86256
64707A232638a737131f99573r66488j340151L77499b60238G62931N24487b407282
64697H41739B72312N34505a69998B839576I32792L687603A403713a674117B241120
64687A647813n42939J750131q02055p12195b871993e11459A572288f46302k43604
64678h89906j289270R89325B35838M15196J98734b293400A539259F93447R05177
64669A598624i03636A859760H00013b132520e67939r05230k52677m78361H82510
64659f66682k648892A053605N7937K61702P54310c092540J11643M56425i18573
64649f32363Q5473n73498d48767q89010A662786a313633j381389a293184r85156
64640b278340g81400r4171k503728g43953E64808K082345h98096C062921J090419
64631D153340A217606a734212I51650D8868a385201j787739J058789A72519J833033
64622B005552J30723A040895a656380n04377a97567A380339A64578f43781k3669
64613f67450C075023D88856J599813J105747A70302a18999k324874m402569F14967
64603A288720a26770j529294H45481b301282p96145B70554f31631A021693J446364
64594B468057q3833a913028j654142q49877d50362I52417a607630m478112K167198
64585c918544a075165B927972J052452M89217j865783F47126i14097j871109d39017
64575a32237k361873i24660b01168I45468O52077b38206j224391k77966a66520
64565b908957J92351j010476a619181H16273a324892J55831j36408j296983g84637
64555f52181B428862F61657j78796j17796i76832A087872L161683K20063F2901
64545B759111p74471d86566r86694E73254c313365Q42974A032386b68267j149815
64536a418082b73805D290890A256149e49858D24347N82958C17371J340457a54913
64526D299673b33120k268476B172608r75202f47697k786528a458594C361536P8501
64517C440037F33581K703963M6927A651567f98434j836829f74146j357470h93409
64507G66160C76209I4271b86724A998257J444385A532958D70878h58871G34024
64497i6204j633218B089762K385128j882446A2972b262918q19166O31789R70374
64488a479921F57806g95141J21969G55471b461038Q75724j53366N7872L00954
64479a379854A516496N05884B04246a179197B089826L844191G11305K092434m02505
64470B401234J157434A719982c97767o95892o03757H23900H5b511827E6910b760920
64459c807394a87742A003110a726062f29996E96790b198566P08864A79536a653921
64449A125546K413974I89284b900878O81091C38644J910545k78957J960467j914329
64440B016370o43362e83575A560376D20840d368056Q88414I68786h11702C751087
64430A482123h47286m404464J851733d45382A374249a157863A393748B27504d098835
64420A228427b2744k599061g45432A060898J193718a69881j509927A091112c38069
64410a188249B72480J688316f24411n87503B66056d362565d30048D78435b395657
64400e00880l5060n05234l00592f930C625920K74467A008433d45894j786204k657710
64390d889808M80562a361131j142272f39214l555128J746921O88777B201896m29826
64381A772070p0720o41691b275846D63418E0643b211938J004532a27875j977286
64372b105161P8227J62158h67904E30111A88262e47828A61281b769485G86440
64362A508151D61256K51496k67744j25582f42616o76887B351756N76019j221894
[...]
2790a165099r4154J0114A561630i96751j302761N53623O59995m61913k561400
2781d109207N37672b01861o11951K86155J85102p11066j225193o58768Q39587
2772b097995q00088j777727a030180B456001L05506A309451b64954j139351C98650
2762H47205a524740j165917k911728a459770Q49B82156c348341H60030Q0060J743961
2752B684051p51229k253i41817c70522k465698j028012Q37349N62151p12351A164072
2741B18050a650350A24790L893650j169022B61411i78271A693538A17471a685610
2731B22409K935059A345063a106248c16684j665980R68712k153931a012221k695987
2722c708208a214556j778241M54160a08326A396492a523639H6983J013881n40605
2713E60259K081751A260283a347014P8286C213551G41153d602025o42087P98350
2704d445762A620291L353143A377017a626099J95502d63572A337217A25483J145617
2695A271100J980541c48438j236600l88420O04345H39768h52448r07783A101117
2685E44471L019972D88985a299069k074207k07836J272751j178672a30A518982
2675h55950B836868J928831j926265N10142r88454a014722a73876j786447j731983
2666c692306e88883B174096i44404C47657e21380k927303H61906i12291j056157
2657a968448n077157K703149C846640E51654b383853F11700e03532k019038I2799
2647b121396O25827d93932m743805K061240E87245c149965l28955G71708c26164
2637a041395j820784A611179a57992n57106l08646F91388Q57692a117138n515245
2628f632383K772600J821785A71503a9881C653055j203610A066825f04154b89095
2618A122238N17524I9887J342890B11361b503475B28064L8605J694594l17052
2609A644211h8585A861468n37844J426452j373725J166280E3474a283523k88662
2600a572185O48404b71604C32805a302679c82298A12406f64668j154979N12044
2591a307603D02463a294751F23028k69722J019823k02982Q18232O67602h6326
2581C822383C37906Q17017B55566i79057j733871J213324j3474a57313B196088
2571A760669b196599h59036j989714l173745a288534M43611o41335A40508K12689
2562C53197b519844d84505l67406k598908d59547H4997h17633a78511A638157
2552g05419A575179b24493m204485a051828j407057g27099I66564b508680M39701
2543b068979K60582j010857J033103k107116j71428A756734j53669a393661a67537
2533a06134d0209q960j853619p16263H25096h48264I81590R77286q64277K66967
2523A361566B59131b707885j107065a83787F26756k10538J261230G83380d15429
2513i62006a9904l20823n55372B32310K538187e27278m61225p17486m97191h99538
2502b616107l35919i72681A762206J22548A53710O52705B32771b048864j424795
2493c473659j179540K180353a96610p34003q55994C184175q83402n49948e52296
2483E22008M67647a861732g50740n04975d741k385663k61907B973937K608058
2474E581995a458125k48600j24565i08802A94397g788j202348A455801Q03934
2465B259735r39864f7872A687114P34560f16333k453132P7571f76250k416462
2456c092712K26284n57873a411007D66972A83763M83110J91495K906196l71565
2447C392999K676371l007086J490130H87842b996111a092729B698246a6075G04978
2437A769398p30317J441093J207108p73717l02196J91730F1070Q59571C8267J254363
2427A292630E57095e35442B513241m60075H04407c65583k882429a318168A329464
2417B174647l65757D91819J550704G07687i18138Q0399p2972j935704a267720
2407D70343b569632j65i40790q04640L02306d08536D95542L51670J385396a868756
2396b184572j061770J212315l16410k636915K370952F00542L65447b575416L47343
2387b228073j001110J018736a26152j22210j638786e17999j739399d12839H0768
2377c38225e4027C370367K344703k582955b88299m34275E10031P11661J133553
2368B355245o30062G4088O70483c05953o797D28987K875998j277726h80393A910621
2357E80938g61122j67685B002997m55749o72027M09415e247444J519861B225577
2347d46694a77481B19697a480013l32460b8117A568282a600877A35934a971888
2337b991600d58394j557774i27839C46103J861121l40527a708665J99525H17508
2327B551241j033688J349440b906154h88754A267996b781939h16440J60203q53327
2318a509564B68190N209868k607982a895644p73914B50916O8778J040814a601607
2308F98199c594181h96136A361433a565060A235019L745692A097029A58966c04379
2298b289222i40901A034934L398924A449471C41226c229651J116846d55942k376525
2289b832467i67324M40490k211820A383397b854807o79293A024926a923929f83691
2279b302596n22669j037100k43593a951830j88688A42041e54692G03144b877105
2269b398235J099611e49766A19473b315023c21524F94929e73024j428113l20462
2260b321599F07595N87926g94219k84090j241298J4987j385450j56100F46851
2250B196854f29570k859480d72084n94088L41926l68611K53476j950678q18217
2241c608276a151460k79060l013952j094231Q33166c35095B453442A101391C86923
2231A407085L21160c710583a76956A917493e187028K69934A643344K097131n90260
2222C150215r64204o81840a794548o37143Q34796j077895R01723a32057I62665
2212A963771j92759b385765K40968h49395C385794B25528K43831L883147k068000
2203B284506B78124b528916R89342A09244J000801a689299M19682F34221d79961
2193d71918j046393l085787J13866f96501m38974a07445B418659d51488b3308
2183A622402K854062N07825G02675b114255I35380a323441k509983A949895J54263
2174B104158D51160b594273j107281J460907A410771e31110k009472I01502b39359
2164I48083J826181a269344M38765j521472a142333k346084j44269O87672K99033
2155b645981a65591q52844A61198D1121a942506m19137a150435j096386k40152
2146b486973c02937B83519O6784h96558B27909H1399J96815b518661E06295K309923
2136B816218a00453F67651A49098L37239R0677K56447k33134J220618B45335J480577
2126A725912n11630A51380R89520k27085e22191j94344F4564R01939a004896k298905
2116c303801j769002a207596g4716A480143K345414m07547j352120J585701d97635
2106d65649B523392A048688c315024a478431A069344a243812F81992J52671K791917
2097C626580o60898J783630A463682b794535f63565F17966J022266a032696j113194
2088b145890h68830p48819j126037a355720a28342k93070q5628I93383c6617F15548
2077G36911K93760l26760K362278F62637k09303i32471A587489a626370L67880
2068a258490r57194j245280r79822C70776J73433c34359j152936m97502G14416
2058d9752F499533k944156a367814J37849j288332A299R03869P96119a87624p27463
2048i15087j93437p92118a14736l281509E24479J20033a474507q2324c57675k029079
2038b386754A369536J126369d87614H68977J988338j160903h78880K05061n51684
2029a225503E53657c229836D86159K609002a141674k767226J21002J149515N68209
2020b070174Q24985j072344b38015k770808l054446a866254b80123I67866J122066
2011B089932j45436L68173P64506j109404i95785o6408E71714K407841b71714
2001F30246c704442m30395J880508o00336b3217A80374b208224c2615B441212
1991C222647j534717b594107d77180j093822r74407i85903H87524h54961j046961
1982a901922K58162a08500B699163N22751A534706Q50562K179465j021178l56775
1973C186780H72878a275724A667179J975804J100962E19471E453b788251K12619
1964b575632J59504J69189B200471A80862c243162n65591J213084d32827o11807
1955a044634A813231a518327G2775M806181e31954j306603i06367C48421h85724
1945e408A935568I17052c077237E5943J071243a048589j3793E013086k127989
1936B885097A006802g31314k81332k604791k019084b780358r38754J329199B35292
1926A715857i50637l283144e99293A045336f00107j348525i31289M00301j360148
1917a891136k255438J855651j455872c59412n33225J3244j12697b03878F27102
1907i79657B95338K124217L98834a158228A062410b669825j960720a756090j452116
1898c208206j805166b237561L97822j441909a035262c47817j526663F63235c580581
1888c809439J668968j233332I80042d79718g5792A248465P0321Q97766H37207
1878C045454q46501b84684F57947K93723a930503E36780J89382k91967a100022
1868B900536d02258H85725b755296f99004P117n906794b285829F0706c401893
1858c605785J307459j528116a697144g30513o51876N09745E78099K62616c483713
1848b628041P35308j061319A203087O92333j83769d85056j411801H4953K173713
1839B258666k05162j25378E65639a925352j081691J350255j224095A30986N05720
1830F36706h81159k884765q56784K278283b43428p42430k589168k3202h54809
1820b992798a493843n85337F65494a484592j006192a035227M33673j067208L04325
1811a364437k978256J066209j238933a894149r9274A4333d65071o10503A883147
1801c619049a73006r49086L82207o5875K03694D73011b61563j400170j136422
1792b798155h4746k458128Q85541g44353A079068J33252a182058k2835k826463
1783d031356a37754p16446A667774j5352R54540p19864J306584A68794a351498
1773e56808j297261D87902b14546A201943a679768M68264p24072j435577a529051
1763a61771k481477a299653M08164b98233A314805J910046A389256K777277j838865
1754B327668J66490b524050J38158B347930C94970d402145P7775K117319i30104
1744A471272L29273J399224i19215A538505a635538r56433J038237M60569j461549
1735b554714k5621p05685K62908q44404p09662J031913q82367J022884G1532K963611
1725C035143B16165c716273N26444j59130e33943B513624H11099a017715j522206
1716b539921j629947J596854f86330q5674j212075n6688A967484M73092c947832
1706C76345J712444A1553P64520c20573n71181r71448c68577c2553B354521B15147
1695g5681n17875k108685P61917N6810j904852g89024k294457J131075J32545
1686a819861b7608B090230n5459a891558j292338O96780A628606F27541j11064
1677E16477e55064j37237l26728k46257k08541B6518e65717b54739k41742q54712
1667a351193M09224F82526b87469F87915a529499A3407K465900o83868n48196
1658A247243R677J637942A401770l88651c751001j051753i4764n62207q04454
1649a461425b29635j758392m87031I63818L26356E11153a031662H17913c199489
1639e812075i18257d35198j905447j232400O08160k112996K388553p62776A603242
1629B572223A234587E76863d12896l402797j599872e09231m3552G12216O05397
1620A317613M04340b604248j624820d61429j243318j809229i47013I82183a041390
1610b942597O65378G70532a66095k462780a54938k72338F76583J237127e79857
1600C271393J203995q00921A289164b244276O22365A110891L05836J336298a402129
1590a643949C128224a38532r44063L93869B93929f86628j052849m48317f57731
1580A308945b737561K97992j18734L17195Q4187A264570b59293O4039B861749
1570C242413a280208n267048j724358b890482J074794C08885J575741a671580
1561b521009L22874j160832k5327N5600J520938A24939a671999M91995b03390
1551a234439A46443C9208b012269J57042Q97740A0149f03541k655067M34860J58872
1541b664876f72467l823263C37734L08786a817035J65604M74921c81955D53054
1531c75914I68673K590618I99481c75641G98045f25594H58509a235625m5272m78403
1521a759300k641508J334062K6926A433500J583898A343784a041921k936418J414725
1512b563614G23843a044690o22609k057984Q57761o64431J600857Q02754e50320
1502A276577J01134A42942a792942j170142J050410M90264k940316j854688c037374
1492d58059k871625O79114a058567B57587Q51826a63903B948995q906g44253b16575
1481E312253k383179A041761b803917N14326J24916L60883A067914a176758K71417
1472i05341r22677i04745b7385k17173q33676q32790L66537D07469a22258k089112
1462b211370m17023A030597a752537E71517a85903B87162J142986R73283b12046
1452d93854D94633e94222k929957r32515g11969n07875j025032c87829k61553
1443f49382j70204j58591l2626H7773a883288a86473r35107B448490p07758a78636
1432a197211A979673d30709n91768l36965L51900j508063c95075A279817C7859
1422A945803J596984j727231e40814E62872K542829j220302H7576e59406I51205
1412b33479k658667P14723P65708A047966b622499R85496o20218C799866L62397
1403D162263N4621I76942N60736e83465C536456J555809j861992l34615K289108
1394E184766A994322o29688l64763K46675Q22599a048338E59776N74174J416399
1385B550349A036911a333633j145654b10004j281223H82712a72947k076974B94924
1375a462065e89790j970192c58608E71538O69237N66645p69722d80056l834689
1366d314745K106077R33255L24507j135440o61606a250537B940333A214107l44027
1357H70080b018793P86005A06098i90883A248338B54311J372734J311075K224800
1348E162920k001745A077558J007639R20412j48867A255564N74962a031114C18030
1338b737254a347813B048601F31185K91454J001824F56000k15025K86519K042928
1329B770422K134242H54626c62501r44103c53966l36963a26392m63742I38050
1319a824269k812764a996500q20013j926869a134504c02479B318771A72304a11987
1309D58987Q3481k62687b927729R67613M1023a73381C5414J178900B80960a31494
1298a654989B39089c3640A798931C63742K46807J92055C41686f85067j787186
1289b472253j101033R65870A77249b020309B390837a967653c88453l43095B972902
1279D243444c138B713740a928820P51803d34469j636581g65206n21771B22252
1269b58041H30497l61952Q70131i85402o62568G15766J271598r30601L77400J137982
1259B572145a007793k179403k166082I17845J220206a308253E24595J452255a061272
1249a81294A017707g54347k631290J029381p84860r69342J144230a479784E74840
1239a82473q71313A101068a023006H11814a49553j926080K47099r39369e16198
1229b032171M86409J2886K81241K80165k581453F28191O30455a604548H46701
1219C83039b97216B446556J157451i92662k932552J172338q51868g54621l593245
1210d347866K7356i50359A269462Q470N22653Q01767K881169d55141j380309q5226
1200a920676a34073E62742J959964n2080a303562d90436C228098l8586b053830
1190i13432A441898b49787A091539E07617a23026B044406p81144J832873N21684
1181C617819a586916g66656A947915a230081D60026a292734b5550C768099H94659
1171B10938d04743B594111J040401A313273J988653r00995j081656f37050a65502
1161E99961J083974a562705g60980q59536d56001B095973H46466l43830J701288
1152B203924l31181J905597q58282H60440N55018Q01229e69099C06029a988524
1142b923872J419091O6732m850230J761943B307200a61193j396867l34665m71038
1133b363763g25232k56883K51385J87062C954546m20290B16139K30280J573573
1124B019992p42832C58062b319230k95073J298120A234012c80198l949268l435904
1115g765370J988528b385243j040760B95604a793736d44327B83378a946641F29042
1105a137321m07799G58698b711725q01806a409331d07315C38070K187030j8841
1096B506259h83047A455695a255981k332687J690819j146236J033833j710111
1088c720363i5177j884259A587965K62769b764066J154561C42693J14895b158353
1078b931266j66172l87040K8131d79394A00084c922871J894920A41797L49594
1069D91391K132483q67050M57027A035590b59636A161255c050107G44482a81034
1059B368440N95152A465556b058238o96779d14390l244875a516720A415955h77916
1049A207789K465342j587912f58941B790604H0424J106485b121203f12199p89077
1040a401276C23025M183949N4754a430347j922042c78673C428063A423236J009088
1031B432324B73169b352449j813055d58456F77973d121231a286021j104703C63418
1021A021901b18667j646580P93558B319112Q42608A045166g26582n69588C84824
1011b007666n90669j821785a213343b73065d4095k7317j051403o83423b69750
1001B047801J930551A224988L45843d77342A664304N27527D48769J073816J096206
992B618791j73398L43525A180947O34251b90472B594597A104415a309943j171975
983b481918j27162D814372i89212r29351C67435K10053e77338b83650j730898
974b014548j493692D04664Q87731J027526j72438f79647o86933l140090J968923
965b537747N21364j503579d42991q66975l120561J937203O26133j122017a331146
955a793035A30715K812019G24801Q25445B10074c105756A297286k51113e59577
945A16364a567615N54143l786016k90684N05114m11574b028028A337558k68715
936A068843a859733K48833e63675k162757j159257g5551l95005B226044j56817
927B069227H91291A39978L836429E21227b141839j053156N34007J166670e79367
917d689912R96088l86594J182457K68216n6840B328253L18615f32899m17481c85151
906a275031j318783j179753E75810L726592j348394C65861e45937j050114l01073
897a897124j727101Q11143q47187Q14312g23918k156824g53910L70001j444702
888a828611L60181E0848e76229j225058k95411f09773A003405b138076f45797
878A472272A61433J338638c45328j783949o71694J266883j567912J323136j83635
869a962499k420p847k108320K16668C19850J998940b628343j464664a573692m49770
859b023462j814729c92599A723906J771638A05593Q10686b657024j314810J277810
850b694024q4910B389956b22417j391923B344258a87399k076688N9117c99178
840g00757B116872A85611a930975a53414C692219G65768M848J624093p86321P15949
830B324337E60673a893214h67904C066378N7885a9380k555801k27297N88215K40532
820a973731l28558a12642C471287J481710b26023q90703A546705F18246k75480
811C42766M62152J833723A163693a029794l200112d35694A882000i88673p7104
802a065777G66694K76794l35132J76285d67900j011131M65689k688317P99599
793b902060A175789N0571J695505j085061j88937L78458k88471D03854Q94646
784A298500o40109L484234k026964a97229A82498L691846I26554D39072N89849
775A028921K297220j449983J391968r07341b020705J85850j782036c3320A450215
765A130120K489107J485701G67985d75660j152563M44961J18845o07427h3432
755f69289o44324j198360a207827C5347O78576b188178L19775B214038r5003g31702
744b500692F25467b332060h77621d37208j101934B72067a68825j444722j26499
735a740046L13674L97416k19552o41991J64660g58160c34082B383910d63303j703490
725b166793L47576q64711H09319a245603j133510a022876E03217J163803b763431
715c486161R85137d50200k370980I68463J478983k41240a533689k514125a89067
705a269353d86118A08634a951318N53148o98686j909079f62501l78129F80882
695A513968B87022J089074a013853H13910a015674j507024A769174n35742b311100
685a128995d74653H18744e08296b5893j258903F27567g51885H71159N18497a397216
674G09147k98109K2433b216951k512711Q00277J091633J031610A922047b096842
664b603534a151859J85669B032114q70263n37462J081134Q50603d93545l102064
655c595609o8508B401398I21114a938864L46188A491875M2768E3113a636956A28690
644C50928J66850D0762J29941g77247l465318e50518b15513B967731K48140K31671
634C447542j656677b007741A5845L260868h77948p26419E64098R31768d813686
624b021675f5348l095993J375068A110242k33329J145041B22548a514082j496656
615c010738J483701M09481j246290J63172A585943K344884H39976c11882j87892
606d99774l68510A847815F4248b164421E1327c60740m22992B023942M82780a893626
595c296669D23471J833871l42501n5436h16931k177957j63722c30974A878139
585A190031a030828M56367K24735j145145G06052B08391c75513A564140b90080
575a679652n0982q71157A227544P87289b140526q52663J043546K84098j03528
566a769073e91196j497168E94236a561421l81982g72162l046648D50448c21344
556C160753D2247a430568B200898d58112q24293C52744i86568p33213Q36241I77943
545a785315D75755l1657b150208J27259g75900g8478D32309b144636D78070J542993
535B021063q51602m38311h02244g1609p83245j056736n18771q64134a564909E01200
524c89839a25414A326385J913443q54863A121246i83821C547388I49896b644049
514C26992i07481m67079O75058l97662r41451d08753j836502a4057C26819h58054
503g54610p17711A700376D6925J339840J31117P71625o13518a458220H89062c35982
492b748141M98700A311049P73248b48539k71106A26290b150060J046834j809141
483b912367A205407j62086b084843I33570J699075I40501L63996J475280l51978
474B427799J903208b4186k517177A90465K58811M19190a893710N06392d72621
464a823003F53984P40264d79648D9553N70657J105041p72442K13809Q92426K57637
454B316681a165101q54891f45603j863782a122378j690265a92161p18621K45503
445f65279j049662r65083J90400b24693j20260j59389J84601j256197m89775B115501
434A449938m01184D00767L80465K06833e92899p25608l46175c95653C682067f37653
423e439415K445088d77627D23286K357349i03690d30092E42288f69219o52745
414a321964a75365j008761N40830A373397c15028j250374r47644O51996F30463
404a007124j324462K51524g1996j466552c5026j341631m14120M29920J90901K88589
394h81367M19315k263521J233682F32687k38474b566177K56356C066J179152J53242
384A335460a061693N28702E25096b41648j377834A241357e97873j131873j40560
375a870306A61790Q80124J270048G47901J441116j083151A94562J321680p44217
366G72025a113103H58315Q95529e23650A529895F75939a025213g1738l372867
357c444605J602999E3991J064255h34444c71080j255439M69229m23825A682201
347A981104c494162J360446A349148f22465j241637l42835j022226P66953e33354
337A246624O42011q33075K356599A061730R81956q46981e02683m85272j23856
328a111811k80399d46062B37295a457049j676510d11653H09143h27656C359704
318B181349a956261p39503N77154H73479k01607f31095F47194a678217O87234
309i90983m6494C48144b081443M77926j18536r11064m02867g68939J19403E7668
298C056539n62972A52534c84924E74641J339886E19116Q22313C67162M3317L95987
288H06466Q56063D69333d45749j116241b46188B97130d4478D49045b14091k80671
278d94762L3257k11630r46068c64573n693C64399N28597C20379J435695i0167
267i61398K92266j703556B93877d23120A5342a129691N23020A754020q17573a289457
256B80673R63085a172639q19500N86905d39530Q4041o46434r43476P98736l75748
246a522411A670752P11748o70895H0801O20100o0809a611883A065950a55039A325807
235i11300L45934p59144j62847p09634J14604A257678e08313o19092C23814E1834
224B11062h18470F54877J932032e69726E60651b643541J224968A561029R1237
215A652266p31719a74872q14712r45641J25316e79156b08794l94309k69465G26149
204c2022l0712C86710c5803k09550I00720D03566l1921P28969g73542c51829A235045
192e29125C44372a355698K63551k040967M48529j502136J982008N7576J000328
183a146809p51309A57579K268956a176158J2046G7855h91400G60506L347452a88817
172i79033l02990l47098j84229C82488d84740B24653c82038j832242Q19957p56254
162b150577e84782r8073A121455j50102C06497Q1776a850442j564625a331670
152a485717j943864J5154a121133F61149b075438L42280n0439M29591l5615k54058
142a643679P87259m78805m85341O73335b81454k95972A804J433757B29303c420992
131b279875a97266B347573K115509j873581B01595a594992l802663b180272a046239
121D44331R99252k01868O71461H62114B82272h65265j929322o21151a375817a57859
110a77889j529491b19690A029016a228742n01033C41144J629759K245951A727134
100e22592B71110b426563J138304G54857R26329H8532a037342C80550K8033P02221
90A110804C07459L17041j06157A20026M61154J044038Q61226j058251q1713c86996
79a988647d44910r68871F36009a112487j52649j288725i78763F373J285668M15713
69A707754J924916f04868F70848Q77221J33228k6460H11260a306078l85373n45117
59b236568A298029m03936C86613o324J815366A96351b191226o32664j14139a332020
48A438243K07607D39414a223537B37122d91547E6929L061667A143751J724544
39B868295j0220E29450R46527b094120C45283M50961d62327l89050j82827A024077
28B131579L35882B38002a765941D33197a538759b27011F6494a973391i40447A957697
17B433932k34577M27956r8786o89896F04928A34853a188384j844413g44790B09496
6a977605Q33084G92338N24515l55757B40275a847835
##END NTUPLES=NMR SPECTRUM
##END=
